REMARK SMILES Cc1ccc(NC(=O)c2ccc(CN3CC[NH+](C)CC3)cc2)cc1Nc1nccc(-c2cccnc2)n1
REMARK SMILES IDX 24 1 2 2 3 3 4 4 5 5 23 6 1 7 25 8 26 10 30 11 29 12 37 13
REMARK SMILES IDX 28 14 27 15 31 16 33 17 32 18 34 19 35 20 36 21 6 22 7 23
REMARK SMILES IDX 8 25 9 26 10 27 22 28 11 29 21 30 12 31 13 32 14 33 15 34
REMARK SMILES IDX 20 35 16 36 19 37 17 38 18 39
REMARK H PARENT 25 9 6 24 17 40
REMARK Flexibility Score: inf
ROOT
ATOM      1  C   UNL     1       4.008  -2.089  -1.079  1.00  0.00     0.046 A 
ATOM      2  C   UNL     1       4.065  -3.268  -1.835  1.00  0.00    -0.027 A 
ATOM      3  C   UNL     1       2.950  -4.025  -1.984  1.00  0.00     0.008 A 
ATOM      4  C   UNL     1       1.752  -3.652  -1.399  1.00  0.00     0.026 A 
ATOM      5  C   UNL     1       1.671  -2.519  -0.664  1.00  0.00     0.043 A 
ATOM      6  C   UNL     1       2.818  -1.726  -0.502  1.00  0.00     0.052 A 
ATOM      7  C   UNL     1       5.332  -3.662  -2.454  1.00  0.00     0.046 C 
ENDROOT
BRANCH   1   8
ATOM      8  N   UNL     1       5.175  -1.324  -0.936  1.00  0.00    -0.324 N 
ATOM      9  H   UNL     1       6.057  -1.693  -1.416  1.00  0.00     0.170 HD
BRANCH   8  10
ATOM     10  C   UNL     1       5.307  -0.123  -0.229  1.00  0.00     0.227 A 
ATOM     11  C   UNL     1       6.798   1.617   0.447  1.00  0.00     0.077 A 
ATOM     12  C   UNL     1       5.767   2.233   1.107  1.00  0.00     0.049 A 
ATOM     13  N   UNL     1       6.547   0.471  -0.196  1.00  0.00    -0.213 NA
ATOM     14  C   UNL     1       4.491   1.664   1.099  1.00  0.00     0.117 A 
ATOM     15  N   UNL     1       4.343   0.530   0.436  1.00  0.00    -0.221 NA
BRANCH  11  16
ATOM     16  C   UNL     1       8.132   2.179   0.436  1.00  0.00     0.019 A 
ATOM     17  C   UNL     1      10.423   1.971  -0.308  1.00  0.00     0.021 A 
ATOM     18  C   UNL     1       9.132   1.491  -0.259  1.00  0.00     0.013 A 
ATOM     19  C   UNL     1      10.708   3.145   0.342  1.00  0.00     0.111 A 
ATOM     20  N   UNL     1       9.765   3.795   0.998  1.00  0.00    -0.264 NA
ATOM     21  C   UNL     1       8.475   3.339   1.062  1.00  0.00     0.121 A 
ENDBRANCH  11  16
ENDBRANCH   8  10
ENDBRANCH   1   8
BRANCH   5  22
ATOM     22  N   UNL     1       0.454  -2.078  -0.029  1.00  0.00    -0.322 N 
ATOM     23  C   UNL     1      -0.438  -1.240  -0.722  1.00  0.00     0.255 C 
ATOM     24  H   UNL     1       0.294  -2.413   0.938  1.00  0.00     0.170 HD
ATOM     25  O   UNL     1      -0.162  -0.886  -1.890  1.00  0.00    -0.269 OA
BRANCH  23  26
ATOM     26  C   UNL     1      -1.666  -0.782  -0.110  1.00  0.00     0.040 A 
ATOM     27  C   UNL     1      -2.003  -1.132   1.179  1.00  0.00     0.014 A 
ATOM     28  C   UNL     1      -2.525   0.034  -0.856  1.00  0.00     0.014 A 
ATOM     29  C   UNL     1      -3.211  -0.646   1.692  1.00  0.00     0.006 A 
ATOM     30  C   UNL     1      -3.701   0.497  -0.334  1.00  0.00     0.006 A 
ATOM     31  C   UNL     1      -4.047   0.154   0.953  1.00  0.00    -0.034 A 
BRANCH  31  32
ATOM     32  C   UNL     1      -5.318   0.644   1.545  1.00  0.00     0.120 C 
BRANCH  32  33
ATOM     33  N   UNL     1      -6.409  -0.249   1.329  1.00  0.00    -0.288 NA
ATOM     34  C   UNL     1      -6.743  -0.519  -0.029  1.00  0.00     0.146 C 
ATOM     35  C   UNL     1      -7.595   0.075   2.050  1.00  0.00     0.146 C 
ATOM     36  C   UNL     1      -7.666   0.461  -0.667  1.00  0.00     0.277 C 
ATOM     37  C   UNL     1      -8.164   1.348   1.530  1.00  0.00     0.277 C 
ATOM     38  N   UNL     1      -8.079   1.552   0.132  1.00  0.00    -0.335 N 
ATOM     39  C   UNL     1      -9.415   1.964  -0.335  1.00  0.00     0.332 C 
ATOM     40  H   UNL     1      -7.479   2.410  -0.067  1.00  0.00     0.347 HD
ENDBRANCH  32  33
ENDBRANCH  31  32
ENDBRANCH  23  26
ENDBRANCH   5  22
TORSDOF 7
