REMARK SMILES Cc1ccc(NC(=O)c2ccc(CN3CCN(C)CC3)cc2)cc1Nc1nccc(-c2cccnc2)n1
REMARK SMILES IDX 24 1 2 2 3 3 4 4 5 5 23 6 1 7 25 8 26 10 30 11 29 12 37 13
REMARK SMILES IDX 28 14 27 15 31 16 33 17 32 18 34 19 35 20 36 21 6 22 7 23
REMARK SMILES IDX 8 25 9 26 10 27 22 28 11 29 21 30 12 31 13 32 14 33 15 34
REMARK SMILES IDX 20 35 16 36 19 37 17 38 18 39
REMARK H PARENT 25 9 6 24
REMARK Flexibility Score: inf
ROOT
ATOM      1  C   UNL     1       3.865   0.635  -2.114  1.00  0.00     0.046 A 
ATOM      2  C   UNL     1       3.885   1.057  -3.456  1.00  0.00    -0.027 A 
ATOM      3  C   UNL     1       2.732   1.071  -4.194  1.00  0.00     0.008 A 
ATOM      4  C   UNL     1       1.552   0.660  -3.580  1.00  0.00     0.026 A 
ATOM      5  C   UNL     1       1.476   0.241  -2.280  1.00  0.00     0.043 A 
ATOM      6  C   UNL     1       2.670   0.243  -1.569  1.00  0.00     0.052 A 
ATOM      7  C   UNL     1       5.189   1.481  -4.038  1.00  0.00     0.046 C 
ENDROOT
BRANCH   1   8
ATOM      8  N   UNL     1       5.074   0.638  -1.408  1.00  0.00    -0.324 N 
ATOM      9  H   UNL     1       5.954   0.949  -1.925  1.00  0.00     0.170 HD
BRANCH   8  10
ATOM     10  C   UNL     1       5.298   0.272  -0.059  1.00  0.00     0.227 A 
ATOM     11  C   UNL     1       6.870   0.004   1.722  1.00  0.00     0.077 A 
ATOM     12  C   UNL     1       5.879  -0.417   2.564  1.00  0.00     0.049 A 
ATOM     13  N   UNL     1       6.554   0.329   0.462  1.00  0.00    -0.213 NA
ATOM     14  C   UNL     1       4.589  -0.483   2.055  1.00  0.00     0.117 A 
ATOM     15  N   UNL     1       4.344  -0.144   0.786  1.00  0.00    -0.221 NA
BRANCH  11  16
ATOM     16  C   UNL     1       8.248   0.095   2.201  1.00  0.00     0.019 A 
ATOM     17  C   UNL     1      10.562   0.647   1.677  1.00  0.00     0.021 A 
ATOM     18  C   UNL     1       9.235   0.529   1.314  1.00  0.00     0.013 A 
ATOM     19  C   UNL     1      10.915   0.322   2.964  1.00  0.00     0.111 A 
ATOM     20  N   UNL     1       9.979  -0.091   3.811  1.00  0.00    -0.264 NA
ATOM     21  C   UNL     1       8.661  -0.213   3.466  1.00  0.00     0.121 A 
ENDBRANCH  11  16
ENDBRANCH   8  10
ENDBRANCH   1   8
BRANCH   5  22
ATOM     22  N   UNL     1       0.272  -0.180  -1.661  1.00  0.00    -0.322 N 
ATOM     23  C   UNL     1      -1.012  -0.269  -2.193  1.00  0.00     0.255 C 
ATOM     24  H   UNL     1       0.357  -0.473  -0.638  1.00  0.00     0.170 HD
ATOM     25  O   UNL     1      -1.173   0.062  -3.393  1.00  0.00    -0.269 OA
BRANCH  23  26
ATOM     26  C   UNL     1      -2.198  -0.716  -1.475  1.00  0.00     0.040 A 
ATOM     27  C   UNL     1      -3.416  -0.779  -2.113  1.00  0.00     0.014 A 
ATOM     28  C   UNL     1      -2.164  -1.090  -0.160  1.00  0.00     0.014 A 
ATOM     29  C   UNL     1      -4.569  -1.207  -1.442  1.00  0.00     0.006 A 
ATOM     30  C   UNL     1      -3.307  -1.520   0.527  1.00  0.00     0.006 A 
ATOM     31  C   UNL     1      -4.518  -1.579  -0.119  1.00  0.00    -0.034 A 
BRANCH  31  32
ATOM     32  C   UNL     1      -5.719  -2.040   0.641  1.00  0.00     0.120 C 
BRANCH  32  33
ATOM     33  N   UNL     1      -6.305  -0.875   1.267  1.00  0.00    -0.297 NA
ATOM     34  C   UNL     1      -7.466  -1.210   2.062  1.00  0.00     0.100 C 
ATOM     35  C   UNL     1      -6.572   0.109   0.266  1.00  0.00     0.100 C 
ATOM     36  C   UNL     1      -8.700  -0.656   1.427  1.00  0.00     0.099 C 
ATOM     37  C   UNL     1      -7.389   1.265   0.811  1.00  0.00     0.099 C 
ATOM     38  N   UNL     1      -8.682   0.752   1.177  1.00  0.00    -0.304 NA
ATOM     39  C   UNL     1      -9.273   1.563   2.196  1.00  0.00     0.105 C 
ENDBRANCH  32  33
ENDBRANCH  31  32
ENDBRANCH  23  26
ENDBRANCH   5  22
TORSDOF 7
