REMARK SMILES Cc1ccc(NC(=O)c2ccc(CN3CCN(C)CC3)cc2)cc1Nc1nccc(-c2cccnc2)n1
REMARK SMILES IDX 24 1 2 2 3 3 4 4 5 5 23 6 1 7 25 8 26 10 30 11 29 12 37 13
REMARK SMILES IDX 28 14 27 15 31 16 33 17 32 18 34 19 35 20 36 21 6 22 7 23
REMARK SMILES IDX 8 25 9 26 10 27 22 28 11 29 21 30 12 31 13 32 14 33 15 34
REMARK SMILES IDX 20 35 16 36 19 37 17 38 18 39
REMARK H PARENT 25 9 6 24
REMARK Flexibility Score: inf
ROOT
ATOM      1  C   UNL     1     -16.894   6.068 -49.037  1.00  0.00     0.046 A 
ATOM      2  C   UNL     1     -15.560   6.389 -49.239  1.00  0.00    -0.027 A 
ATOM      3  C   UNL     1     -15.166   7.718 -49.163  1.00  0.00     0.008 A 
ATOM      4  C   UNL     1     -16.124   8.674 -48.888  1.00  0.00     0.026 A 
ATOM      5  C   UNL     1     -17.448   8.366 -48.688  1.00  0.00     0.043 A 
ATOM      6  C   UNL     1     -17.851   7.051 -48.759  1.00  0.00     0.052 A 
ATOM      7  C   UNL     1     -14.597   5.319 -49.525  1.00  0.00     0.046 C 
ENDROOT
BRANCH   1   8
ATOM      8  N   UNL     1     -17.266   4.702 -49.121  1.00  0.00    -0.324 N 
ATOM      9  H   UNL     1     -16.681   4.008 -49.626  1.00  0.00     0.170 HD
BRANCH   8  10
ATOM     10  C   UNL     1     -18.457   4.262 -48.508  1.00  0.00     0.227 A 
ATOM     11  C   UNL     1     -20.567   3.168 -48.571  1.00  0.00     0.077 A 
ATOM     12  C   UNL     1     -20.759   3.437 -47.251  1.00  0.00     0.049 A 
ATOM     13  N   UNL     1     -19.406   3.599 -49.149  1.00  0.00    -0.213 NA
ATOM     14  C   UNL     1     -19.775   4.132 -46.561  1.00  0.00     0.117 A 
ATOM     15  N   UNL     1     -18.657   4.530 -47.187  1.00  0.00    -0.221 NA
BRANCH  11  16
ATOM     16  C   UNL     1     -21.558   2.445 -49.345  1.00  0.00     0.019 A 
ATOM     17  C   UNL     1     -23.413   0.923 -49.623  1.00  0.00     0.021 A 
ATOM     18  C   UNL     1     -22.483   1.591 -48.808  1.00  0.00     0.013 A 
ATOM     19  C   UNL     1     -23.388   1.139 -50.984  1.00  0.00     0.111 A 
ATOM     20  N   UNL     1     -22.471   1.983 -51.496  1.00  0.00    -0.264 NA
ATOM     21  C   UNL     1     -21.582   2.619 -50.714  1.00  0.00     0.121 A 
ENDBRANCH  11  16
ENDBRANCH   8  10
ENDBRANCH   1   8
BRANCH   5  22
ATOM     22  N   UNL     1     -18.405   9.391 -48.403  1.00  0.00    -0.322 N 
ATOM     23  C   UNL     1     -19.795   9.174 -48.436  1.00  0.00     0.255 C 
ATOM     24  H   UNL     1     -18.061  10.345 -48.159  1.00  0.00     0.170 HD
ATOM     25  O   UNL     1     -20.168   8.000 -48.736  1.00  0.00    -0.269 OA
BRANCH  23  26
ATOM     26  C   UNL     1     -20.808  10.187 -48.152  1.00  0.00     0.040 A 
ATOM     27  C   UNL     1     -20.435  11.418 -47.657  1.00  0.00     0.014 A 
ATOM     28  C   UNL     1     -22.148   9.975 -48.357  1.00  0.00     0.014 A 
ATOM     29  C   UNL     1     -21.341  12.417 -47.369  1.00  0.00     0.006 A 
ATOM     30  C   UNL     1     -23.066  10.977 -48.068  1.00  0.00     0.006 A 
ATOM     31  C   UNL     1     -22.699  12.209 -47.574  1.00  0.00    -0.034 A 
BRANCH  31  32
ATOM     32  C   UNL     1     -23.696  13.282 -47.265  1.00  0.00     0.120 C 
BRANCH  32  33
ATOM     33  N   UNL     1     -24.780  12.819 -46.449  1.00  0.00    -0.297 NA
ATOM     34  C   UNL     1     -26.006  12.645 -47.208  1.00  0.00     0.100 C 
ATOM     35  C   UNL     1     -25.084  13.738 -45.365  1.00  0.00     0.100 C 
ATOM     36  C   UNL     1     -27.098  12.030 -46.363  1.00  0.00     0.099 C 
ATOM     37  C   UNL     1     -26.160  13.210 -44.468  1.00  0.00     0.099 C 
ATOM     38  N   UNL     1     -27.323  12.721 -45.135  1.00  0.00    -0.304 NA
ATOM     39  C   UNL     1     -28.459  13.586 -45.116  1.00  0.00     0.105 C 
ENDBRANCH  32  33
ENDBRANCH  31  32
ENDBRANCH  23  26
ENDBRANCH   5  22
TORSDOF 7
