aux_pdbqt.pdbqt
 OpenBabel04242319343D

 40 44  0  0  0  0  0  0  0  0999 V2000
  -40.5320   17.5970  -36.6410 C   0  0  0  0  0  0  0  0  0  0  0  0
  -40.7560   18.4800  -37.6860 C   0  0  0  0  0  0  0  0  0  0  0  0
  -42.0620   18.8340  -37.9410 C   0  0  0  0  0  3  0  0  0  0  0  0
  -43.0980   18.3230  -37.1810 C   0  0  0  0  0  3  0  0  0  0  0  0
  -42.8720   17.4450  -36.1450 C   0  0  0  0  0  0  0  0  0  0  0  0
  -41.5700   17.0890  -35.8840 C   0  0  0  0  0  3  0  0  0  0  0  0
  -39.6360   19.0180  -38.5120 C   0  0  0  0  0  1  0  0  0  0  0  0
  -39.1850   17.2230  -36.4110 N   0  0  0  0  0  0  0  0  0  0  0  0
  -38.3920   17.5990  -36.9810 H   0  0  0  0  0  0  0  0  0  0  0  0
  -38.8460   16.3060  -35.3790 C   0  0  0  0  0  0  0  0  0  0  0  0
  -38.6630   14.0730  -34.5900 C   0  0  0  0  0  0  0  0  0  0  0  0
  -38.1860   14.6000  -33.4190 C   0  0  0  0  0  3  0  0  0  0  0  0
  -38.9820   14.9680  -35.5480 N   0  0  0  0  0  0  0  0  0  0  0  0
  -38.0420   15.9800  -33.2340 C   0  0  0  0  0  3  0  0  0  0  0  0
  -38.3770   16.8090  -34.2250 N   0  0  0  0  0  0  0  0  0  0  0  0
  -38.8210   12.6450  -34.7810 C   0  0  0  0  0  0  0  0  0  0  0  0
  -39.5100   10.8570  -36.2790 C   0  0  0  0  0  3  0  0  0  0  0  0
  -39.3370   12.2060  -35.9990 C   0  0  0  0  0  3  0  0  0  0  0  0
  -39.1600    9.9230  -35.3190 C   0  0  0  0  0  3  0  0  0  0  0  0
  -38.6640   10.3510  -34.1470 N   0  0  0  0  0  0  0  0  0  0  0  0
  -38.4920   11.6760  -33.8670 C   0  0  0  0  0  3  0  0  0  0  0  0
  -43.9690   16.8570  -35.4030 N   0  0  0  0  0  0  0  0  0  0  0  0
  -44.4140   15.5490  -35.7360 C   0  0  0  0  0  0  0  0  0  0  0  0
  -44.4360   17.3630  -34.6350 H   0  0  0  0  0  0  0  0  0  0  0  0
  -43.7780   14.9790  -36.6810 O   0  0  0  0  0  0  0  0  0  0  0  0
  -45.5060   14.9150  -35.0530 C   0  0  0  0  0  0  0  0  0  0  0  0
  -45.6180   13.5330  -35.1240 C   0  0  0  0  0  3  0  0  0  0  0  0
  -46.4730   15.5950  -34.3710 C   0  0  0  0  0  3  0  0  0  0  0  0
  -46.6670   12.8630  -34.5290 C   0  0  0  0  0  3  0  0  0  0  0  0
  -47.5400   14.9350  -33.7650 C   0  0  0  0  0  3  0  0  0  0  0  0
  -47.6420   13.5470  -33.8440 C   0  0  0  0  0  0  0  0  0  0  0  0
  -48.7910   12.8450  -33.2250 C   0  0  0  0  0  2  0  0  0  0  0  0
  -49.9170   12.7070  -34.1070 N   0  0  0  0  0  0  0  0  0  0  0  0
  -50.4420   13.9490  -34.6050 C   0  0  0  0  0  2  0  0  0  0  0  0
  -49.7650   11.7150  -35.1400 C   0  0  0  0  0  2  0  0  0  0  0  0
  -51.8370   13.7260  -35.0900 C   0  0  0  0  0  2  0  0  0  0  0  0
  -50.7930   11.8420  -36.2240 C   0  0  0  0  0  2  0  0  0  0  0  0
  -51.9690   12.5670  -35.8940 N   0  0  0  0  0  4  0  0  0  0  0  0
  -52.5770   12.9740  -37.1810 C   0  0  0  0  0  1  0  0  0  0  0  0
  -52.7080   11.9450  -35.4470 H   0  0  0  0  0  0  0  0  0  0  0  0
  1  8  1  0  0  0  0
  1  6  1  0  0  0  0
  2  1  2  0  0  0  0
  3  2  1  0  0  0  0
  3  4  2  0  0  0  0
  4  5  1  0  0  0  0
  5  6  2  0  0  0  0
  5 22  1  0  0  0  0
  7  2  1  0  0  0  0
  8 10  1  0  0  0  0
  9  8  1  0  0  0  0
 10 15  1  0  0  0  0
 11 12  2  0  0  0  0
 12 14  1  0  0  0  0
 13 10  2  0  0  0  0
 13 11  1  0  0  0  0
 15 14  2  0  0  0  0
 16 11  1  0  0  0  0
 16 21  1  0  0  0  0
 17 18  1  0  0  0  0
 17 19  2  0  0  0  0
 18 16  2  0  0  0  0
 19 20  1  0  0  0  0
 20 21  2  0  0  0  0
 22 24  1  0  0  0  0
 23 22  1  0  0  0  0
 23 26  1  0  0  0  0
 25 23  2  0  0  0  0
 26 28  1  0  0  0  0
 27 26  2  0  0  0  0
 27 29  1  0  0  0  0
 28 30  2  0  0  0  0
 29 31  2  0  0  0  0
 31 30  1  0  0  0  0
 31 32  1  0  0  0  0
 33 32  1  0  0  0  0
 34 33  1  0  0  0  0
 35 33  1  0  0  0  0
 36 34  1  0  0  0  0
 37 38  1  0  0  0  0
 37 35  1  0  0  0  0
 38 40  1  0  0  0  0
 38 36  1  0  0  0  0
 39 38  1  0  0  0  0
M  END
>  <Score>
SMILES

$$$$
