REMARK SMILES Cc1ccc(NC(=O)c2ccc(CN3CC[NH+](C)CC3)cc2)cc1Nc1nccc(-c2cccnc2)n1
REMARK SMILES IDX 24 1 2 2 3 3 4 4 5 5 23 6 1 7 25 8 26 10 30 11 29 12 37 13
REMARK SMILES IDX 28 14 27 15 31 16 33 17 32 18 34 19 35 20 36 21 6 22 7 23
REMARK SMILES IDX 8 25 9 26 10 27 22 28 11 29 21 30 12 31 13 32 14 33 15 34
REMARK SMILES IDX 20 35 16 36 19 37 17 38 18 39
REMARK H PARENT 25 9 6 24 17 40
REMARK Flexibility Score: inf
ROOT
ATOM      1  C   UNL     1     -40.777  13.935 -38.379  1.00  0.00     0.046 A 
ATOM      2  C   UNL     1     -40.783  13.681 -39.766  1.00  0.00    -0.027 A 
ATOM      3  C   UNL     1     -41.973  13.418 -40.361  1.00  0.00     0.008 A 
ATOM      4  C   UNL     1     -43.143  13.396 -39.646  1.00  0.00     0.026 A 
ATOM      5  C   UNL     1     -43.175  13.645 -38.262  1.00  0.00     0.043 A 
ATOM      6  C   UNL     1     -41.975  13.910 -37.664  1.00  0.00     0.052 A 
ATOM      7  C   UNL     1     -39.528  13.700 -40.546  1.00  0.00     0.046 C 
ENDROOT
BRANCH   1   8
ATOM      8  N   UNL     1     -39.547  14.196 -37.798  1.00  0.00    -0.324 N 
ATOM      9  H   UNL     1     -38.659  14.175 -38.404  1.00  0.00     0.170 HD
BRANCH   8  10
ATOM     10  C   UNL     1     -39.293  14.503 -36.441  1.00  0.00     0.227 A 
ATOM     11  C   UNL     1     -37.692  14.989 -34.757  1.00  0.00     0.077 A 
ATOM     12  C   UNL     1     -38.667  15.106 -33.812  1.00  0.00     0.049 A 
ATOM     13  N   UNL     1     -38.012  14.698 -36.018  1.00  0.00    -0.213 NA
ATOM     14  C   UNL     1     -39.984  14.912 -34.212  1.00  0.00     0.117 A 
ATOM     15  N   UNL     1     -40.218  14.627 -35.482  1.00  0.00    -0.221 NA
BRANCH  11  16
ATOM     16  C   UNL     1     -36.276  15.183 -34.390  1.00  0.00     0.019 A 
ATOM     17  C   UNL     1     -34.592  15.655 -32.810  1.00  0.00     0.021 A 
ATOM     18  C   UNL     1     -35.938  15.480 -33.110  1.00  0.00     0.013 A 
ATOM     19  C   UNL     1     -33.682  15.518 -33.828  1.00  0.00     0.111 A 
ATOM     20  N   UNL     1     -34.051  15.222 -35.093  1.00  0.00    -0.264 NA
ATOM     21  C   UNL     1     -35.334  15.048 -35.412  1.00  0.00     0.121 A 
ENDBRANCH  11  16
ENDBRANCH   8  10
ENDBRANCH   1   8
BRANCH   5  22
ATOM     22  N   UNL     1     -44.412  13.609 -37.586  1.00  0.00    -0.322 N 
ATOM     23  C   UNL     1     -44.663  13.795 -36.214  1.00  0.00     0.255 C 
ATOM     24  H   UNL     1     -45.295  13.414 -38.181  1.00  0.00     0.170 HD
ATOM     25  O   UNL     1     -43.697  14.024 -35.445  1.00  0.00    -0.269 OA
BRANCH  23  26
ATOM     26  C   UNL     1     -46.026  13.729 -35.647  1.00  0.00     0.040 A 
ATOM     27  C   UNL     1     -46.178  13.862 -34.287  1.00  0.00     0.014 A 
ATOM     28  C   UNL     1     -47.148  13.543 -36.407  1.00  0.00     0.014 A 
ATOM     29  C   UNL     1     -47.408  13.816 -33.670  1.00  0.00     0.006 A 
ATOM     30  C   UNL     1     -48.421  13.488 -35.839  1.00  0.00     0.006 A 
ATOM     31  C   UNL     1     -48.536  13.624 -34.477  1.00  0.00    -0.034 A 
BRANCH  31  32
ATOM     32  C   UNL     1     -49.860  13.566 -33.833  1.00  0.00     0.120 C 
BRANCH  32  33
ATOM     33  N   UNL     1     -50.481  14.830 -33.691  1.00  0.00    -0.288 NA
ATOM     34  C   UNL     1     -50.762  15.544 -34.904  1.00  0.00     0.146 C 
ATOM     35  C   UNL     1     -51.657  14.795 -32.872  1.00  0.00     0.146 C 
ATOM     36  C   UNL     1     -51.883  14.869 -35.624  1.00  0.00     0.277 C 
ATOM     37  C   UNL     1     -52.874  14.248 -33.528  1.00  0.00     0.277 C 
ATOM     38  N   UNL     1     -53.105  14.779 -34.853  1.00  0.00    -0.335 N 
ATOM     39  C   UNL     1     -53.794  16.052 -34.822  1.00  0.00     0.332 C 
ATOM     40  H   UNL     1     -53.731  14.104 -35.350  1.00  0.00     0.347 HD
ENDBRANCH  32  33
ENDBRANCH  31  32
ENDBRANCH  23  26
ENDBRANCH   5  22
TORSDOF 7
