REMARK SMILES CC(C)[C@]12CC(=O)[C@H](C)[C@H]1C2
REMARK SMILES IDX 4 1 11 2 10 3 8 4 9 5 6 6 7 7 5 8 2 9 1 10 3 11
REMARK H PARENT
REMARK Flexibility Score: inf
ROOT
ATOM      1  C   UNL     1      -0.357  -0.203  -0.248  1.00  0.00    -0.017 C 
ATOM      2  C   UNL     1      -0.036   0.943  -1.190  1.00  0.00     0.013 C 
ATOM      3  C   UNL     1       0.811   0.637   0.023  1.00  0.00     0.007 C 
ATOM      4  C   UNL     1       2.059  -0.181  -0.324  1.00  0.00     0.057 C 
ATOM      5  C   UNL     1       3.234   0.190   0.510  1.00  0.00     0.016 C 
ATOM      6  C   UNL     1       1.579  -1.552  -0.145  1.00  0.00     0.136 C 
ATOM      7  O   UNL     1       2.189  -2.515   0.270  1.00  0.00    -0.299 OA
ATOM      8  C   UNL     1       0.158  -1.578  -0.573  1.00  0.00     0.083 C 
ENDROOT
BRANCH   1   9
ATOM      9  C   UNL     1      -1.660  -0.093   0.457  1.00  0.00    -0.010 C 
ATOM     10  C   UNL     1      -1.814   1.113   1.321  1.00  0.00     0.008 C 
ATOM     11  C   UNL     1      -2.762  -0.133  -0.609  1.00  0.00     0.008 C 
ENDBRANCH   1   9
TORSDOF 1
