REMARK SMILES C=C/C=C\CC1=C(C)[C@@H](OC(=O)[C@@H]2[C@@H](/C=C(\C)C(=O)OC)C2(C)C)CC1=O
REMARK SMILES IDX 11 1 12 2 10 3 9 4 8 5 7 6 6 7 26 8 25 9 27 10 5 11 4 12
REMARK SMILES IDX 3 13 2 14 1 15 13 16 14 17 22 18 23 19 24 20 15 21 16 22
REMARK SMILES IDX 17 23 18 24 19 25 20 26 21 27
REMARK H PARENT
REMARK Flexibility Score: inf
ROOT
ATOM      1  C   UNL     1      -0.627   0.884  -0.581  1.00  0.00     0.310 C 
ATOM      2  O   UNL     1      -0.455   1.989  -1.139  1.00  0.00    -0.252 OA
ENDROOT
BRANCH   1   3
ATOM      3  O   UNL     1       0.249   0.468   0.385  1.00  0.00    -0.457 OA
BRANCH   3   4
ATOM      4  C   UNL     1       1.325   1.304   0.732  1.00  0.00     0.210 C 
ATOM      5  C   UNL     1       2.862   0.006  -0.916  1.00  0.00     0.044 C 
ATOM      6  C   UNL     1       2.599   0.614   0.405  1.00  0.00    -0.026 C 
ATOM      7  C   UNL     1       3.424   0.641   1.413  1.00  0.00     0.002 C 
ATOM      8  C   UNL     1       2.776   1.335   2.533  1.00  0.00     0.163 C 
ATOM      9  C   UNL     1       1.351   1.562   2.209  1.00  0.00     0.130 C 
ATOM     10  O   UNL     1       3.285   1.713   3.627  1.00  0.00    -0.294 OA
BRANCH   7  11
ATOM     11  C   UNL     1       4.818   0.128   1.579  1.00  0.00     0.066 C 
BRANCH  11  12
ATOM     12  C   UNL     1       5.374  -0.533   0.425  1.00  0.00    -0.022 C 
ATOM     13  C   UNL     1       6.419  -0.163  -0.237  1.00  0.00    -0.005 C 
BRANCH  13  14
ATOM     14  C   UNL     1       7.180   1.044   0.152  1.00  0.00    -0.008 C 
ATOM     15  C   UNL     1       8.214   1.399  -0.519  1.00  0.00     0.008 C 
ENDBRANCH  13  14
ENDBRANCH  11  12
ENDBRANCH   7  11
ENDBRANCH   3   4
ENDBRANCH   1   3
BRANCH   1  16
ATOM     16  C   UNL     1      -1.777   0.052  -0.982  1.00  0.00     0.113 C 
ATOM     17  C   UNL     1      -2.574  -0.617   0.112  1.00  0.00     0.033 C 
ATOM     18  C   UNL     1      -1.689  -1.425  -0.845  1.00  0.00    -0.014 C 
ATOM     19  C   UNL     1      -0.439  -2.034  -0.293  1.00  0.00     0.012 C 
ATOM     20  C   UNL     1      -2.472  -2.280  -1.836  1.00  0.00     0.012 C 
BRANCH  17  21
ATOM     21  C   UNL     1      -4.031  -0.778  -0.016  1.00  0.00    -0.011 C 
ATOM     22  C   UNL     1      -4.827   0.218  -0.278  1.00  0.00     0.030 C 
ATOM     23  C   UNL     1      -4.326   1.614  -0.471  1.00  0.00     0.052 C 
BRANCH  22  24
ATOM     24  C   UNL     1      -6.268  -0.013  -0.393  1.00  0.00     0.333 C 
ATOM     25  O   UNL     1      -7.043   0.926  -0.644  1.00  0.00    -0.247 OA
BRANCH  24  26
ATOM     26  O   UNL     1      -6.825  -1.274  -0.229  1.00  0.00    -0.466 OA
ATOM     27  C   UNL     1      -8.234  -1.438  -0.353  1.00  0.00     0.282 C 
ENDBRANCH  24  26
ENDBRANCH  22  24
ENDBRANCH  17  21
ENDBRANCH   1  16
TORSDOF 9
