REMARK SMILES COc1cc(C=O)ccc1O
REMARK SMILES IDX 5 1 8 2 9 3 10 4 3 5 4 6 6 7 7 8 2 9 1 10 11 11
REMARK H PARENT 11 12
REMARK Flexibility Score: inf
ROOT
ATOM      1  C   UNL     1       1.531  -0.250   0.042  1.00  0.00     0.018 A 
ATOM      2  C   UNL     1       1.857   1.080   0.157  1.00  0.00     0.015 A 
ATOM      3  C   UNL     1       0.843   2.009   0.188  1.00  0.00     0.051 A 
ATOM      4  C   UNL     1      -0.471   1.618   0.107  1.00  0.00     0.157 A 
ATOM      5  C   UNL     1      -0.808   0.286  -0.008  1.00  0.00     0.161 A 
ATOM      6  C   UNL     1       0.221  -0.632  -0.038  1.00  0.00     0.062 A 
ENDROOT
BRANCH   1   7
ATOM      7  C   UNL     1       2.594  -1.252   0.007  1.00  0.00     0.260 C 
ATOM      8  O   UNL     1       3.798  -0.916   0.080  1.00  0.00    -0.298 OA
ENDBRANCH   1   7
BRANCH   5   9
ATOM      9  O   UNL     1      -2.126  -0.133  -0.091  1.00  0.00    -0.493 OA
ATOM     10  C   UNL     1      -2.410  -1.504  -0.206  1.00  0.00     0.278 C 
ENDBRANCH   5   9
BRANCH   4  11
ATOM     11  O   UNL     1      -1.471   2.611   0.144  1.00  0.00    -0.504 OA
ATOM     12  H   UNL     1      -2.442   2.318   0.084  1.00  0.00     0.293 HD
ENDBRANCH   4  11
TORSDOF 3
