REMARK SMILES CCC[C@@H](O)CC/C=C/C=C/C#CC#C/C=C/CO
REMARK SMILES IDX 8 1 9 2 7 3 6 4 4 5 3 6 2 7 1 8 5 9 10 11 11 12 12 13 13 14
REMARK SMILES IDX 14 15 15 16 16 17 17 18 18 19 19 20
REMARK H PARENT 5 10 19 21
REMARK Flexibility Score: inf
ROOT
ATOM      1  C   UNL     1      -1.886  -0.563  -0.187  1.00  0.00    -0.027 C 
ATOM      2  C   UNL     1      -0.707  -0.595  -0.798  1.00  0.00    -0.004 C 
ENDROOT
BRANCH   1   3
ATOM      3  C   UNL     1      -3.110  -0.429  -0.929  1.00  0.00     0.030 C 
BRANCH   3   4
ATOM      4  C   UNL     1      -4.005   0.750  -0.613  1.00  0.00     0.036 C 
BRANCH   4   5
ATOM      5  C   UNL     1      -4.388   0.725   0.818  1.00  0.00     0.114 C 
BRANCH   5   6
ATOM      6  C   UNL     1      -5.315   1.779   1.286  1.00  0.00     0.031 C 
BRANCH   6   7
ATOM      7  C   UNL     1      -6.775   1.506   1.074  1.00  0.00    -0.001 C 
ATOM      8  C   UNL     1      -7.165   1.360  -0.344  1.00  0.00     0.004 C 
ENDBRANCH   6   7
ENDBRANCH   5   6
BRANCH   5   9
ATOM      9  O   UNL     1      -4.629  -0.517   1.378  1.00  0.00    -0.393 OA
ATOM     10  H   UNL     1      -5.496  -0.921   1.130  1.00  0.00     0.210 HD
ENDBRANCH   5   9
ENDBRANCH   4   5
ENDBRANCH   3   4
ENDBRANCH   1   3
BRANCH   2  11
ATOM     11  C   UNL     1       0.490  -0.735  -0.077  1.00  0.00     0.009 C 
ATOM     12  C   UNL     1       1.709  -0.805  -0.221  1.00  0.00     0.061 C 
BRANCH  12  13
ATOM     13  C   UNL     1       3.045  -0.885  -0.338  1.00  0.00    -0.061 C 
ATOM     14  C   UNL     1       4.130  -0.952  -0.429  1.00  0.00    -0.010 C 
BRANCH  14  15
ATOM     15  C   UNL     1       5.502  -1.032  -0.520  1.00  0.00    -0.010 C 
ATOM     16  C   UNL     1       6.630  -1.110  -0.601  1.00  0.00    -0.061 C 
BRANCH  16  17
ATOM     17  C   UNL     1       8.088  -1.188  -0.716  1.00  0.00     0.059 C 
ATOM     18  C   UNL     1       8.825  -1.168   0.351  1.00  0.00     0.010 C 
BRANCH  18  19
ATOM     19  C   UNL     1      10.304  -1.242   0.436  1.00  0.00     0.184 C 
BRANCH  19  20
ATOM     20  O   UNL     1      10.919  -1.346  -0.772  1.00  0.00    -0.392 OA
ATOM     21  H   UNL     1      11.651  -0.654  -0.806  1.00  0.00     0.210 HD
ENDBRANCH  19  20
ENDBRANCH  18  19
ENDBRANCH  16  17
ENDBRANCH  14  15
ENDBRANCH  12  13
ENDBRANCH   2  11
TORSDOF 12
