REMARK SMILES COc1cc2c(c3oc(=O)c4c(c13)CCC4=O)[C@@H]1C=CO[C@@H]1O2
REMARK SMILES IDX 21 1 20 2 19 3 18 4 22 5 23 6 6 7 5 8 4 9 3 10 13 11 7 12
REMARK SMILES IDX 8 13 9 14 10 15 11 16 12 17 14 18 15 19 16 20 17 21 2 22
REMARK SMILES IDX 1 23
REMARK H PARENT
REMARK Flexibility Score: inf
ROOT
ATOM      1  O   UNL     1       2.642   0.163  -3.319  1.00  0.00    -0.462 OA
ATOM      2  C   UNL     1       3.155   1.333  -2.733  1.00  0.00     0.188 C 
ATOM      3  C   UNL     1       3.420   1.106  -1.462  1.00  0.00     0.027 C 
ATOM      4  C   UNL     1       3.077  -0.285  -1.141  1.00  0.00     0.135 C 
ATOM      5  C   UNL     1       3.093  -0.929  -2.509  1.00  0.00     0.374 C 
ATOM      6  O   UNL     1       2.111  -1.935  -2.386  1.00  0.00    -0.453 OA
ATOM      7  C   UNL     1       1.672  -0.449  -0.718  1.00  0.00     0.053 A 
ATOM      8  C   UNL     1       1.134  -1.450  -1.492  1.00  0.00     0.135 A 
ATOM      9  C   UNL     1      -0.188  -1.792  -1.278  1.00  0.00     0.094 A 
ATOM     10  C   UNL     1      -0.934  -1.143  -0.316  1.00  0.00     0.133 A 
ATOM     11  C   UNL     1      -0.412  -0.137   0.469  1.00  0.00     0.064 A 
ATOM     12  C   UNL     1       0.907   0.199   0.250  1.00  0.00     0.150 A 
ATOM     13  O   UNL     1       1.446   1.164   0.987  1.00  0.00    -0.422 OA
ATOM     14  C   UNL     1       0.753   1.790   1.903  1.00  0.00     0.347 A 
ATOM     15  O   UNL     1       1.290   2.713   2.599  1.00  0.00    -0.246 OA
ATOM     16  C   UNL     1      -0.589   1.485   2.162  1.00  0.00     0.107 A 
ATOM     17  C   UNL     1      -1.193   0.485   1.417  1.00  0.00    -0.015 A 
ATOM     18  C   UNL     1      -2.600   0.352   1.875  1.00  0.00     0.045 C 
ATOM     19  C   UNL     1      -2.893   1.619   2.651  1.00  0.00     0.086 C 
ATOM     20  C   UNL     1      -1.542   2.035   3.111  1.00  0.00     0.170 C 
ATOM     21  O   UNL     1      -1.280   2.727   4.126  1.00  0.00    -0.294 OA
ENDROOT
BRANCH  10  22
ATOM     22  O   UNL     1      -2.277  -1.473  -0.082  1.00  0.00    -0.496 OA
ATOM     23  C   UNL     1      -2.927  -2.473  -0.808  1.00  0.00     0.278 C 
ENDBRANCH  10  22
TORSDOF 1
