REMARK SMILES OC[C@H]1O[C@@H](O)[C@H](O)[C@@H](O)[C@@H]1O
REMARK SMILES IDX 3 1 4 2 11 3 9 4 7 5 5 6 2 7 1 8 12 10 6 12 10 14 8 16
REMARK H PARENT 1 9 12 11 6 13 10 15 8 17
REMARK Flexibility Score: inf
ROOT
ATOM      1  C   UNL     1       0.918   0.264  -0.767  1.00  0.00     0.178 C 
ATOM      2  O   UNL     1       0.034  -0.458  -1.487  1.00  0.00    -0.342 OA
ATOM      3  C   UNL     1       0.385   1.043   0.381  1.00  0.00     0.177 C 
ATOM      4  C   UNL     1      -0.773   0.416   1.085  1.00  0.00     0.179 C 
ATOM      5  C   UNL     1      -1.763   0.029  -0.020  1.00  0.00     0.201 C 
ATOM      6  C   UNL     1      -1.018  -1.021  -0.850  1.00  0.00     0.279 C 
ENDROOT
BRANCH   1   7
ATOM      7  C   UNL     1       2.096  -0.622  -0.336  1.00  0.00     0.191 C 
BRANCH   7   8
ATOM      8  O   UNL     1       2.957   0.184   0.395  1.00  0.00    -0.394 OA
ATOM      9  H   UNL     1       3.606  -0.405   0.851  1.00  0.00     0.210 HD
ENDBRANCH   7   8
ENDBRANCH   1   7
BRANCH   3  10
ATOM     10  O   UNL     1      -0.056   2.295  -0.103  1.00  0.00    -0.387 OA
ATOM     11  H   UNL     1       0.671   2.818  -0.491  1.00  0.00     0.211 HD
ENDBRANCH   3  10
BRANCH   6  12
ATOM     12  O   UNL     1      -0.738  -2.156  -0.115  1.00  0.00    -0.366 OA
ATOM     13  H   UNL     1      -1.504  -2.800  -0.151  1.00  0.00     0.213 HD
ENDBRANCH   6  12
BRANCH   4  14
ATOM     14  O   UNL     1      -0.411  -0.677   1.846  1.00  0.00    -0.387 OA
ATOM     15  H   UNL     1      -0.977  -0.847   2.622  1.00  0.00     0.211 HD
ENDBRANCH   4  14
BRANCH   5  16
ATOM     16  O   UNL     1      -1.870   1.154  -0.840  1.00  0.00    -0.385 OA
ATOM     17  H   UNL     1      -2.782   1.428  -1.025  1.00  0.00     0.211 HD
ENDBRANCH   5  16
TORSDOF 6
