REMARK SMILES CCc1ccc2c3[nH]c4ccccc4c3cc[n+]2c1
REMARK SMILES IDX 3 1 19 2 4 3 5 4 6 5 18 6 17 7 16 8 15 9 7 10 8 11 9 12
REMARK SMILES IDX 14 13 13 14 12 15 11 16 10 17 2 19 1 20
REMARK H PARENT 8 18
REMARK Flexibility Score: inf
ROOT
ATOM      1  C   UNL     1      -3.189  -0.477   0.023  1.00  0.00     0.016 A 
ATOM      2  C   UNL     1      -2.430   0.050   1.047  1.00  0.00     0.318 A 
ATOM      3  C   UNL     1      -2.502  -0.913  -1.109  1.00  0.00     0.017 A 
ATOM      4  C   UNL     1      -1.141  -0.819  -1.195  1.00  0.00     0.082 A 
ATOM      5  C   UNL     1      -0.441  -0.283  -0.138  1.00  0.00     0.234 A 
ATOM      6  N   UNL     1      -1.074   0.146   0.969  1.00  0.00    -0.165 N 
ATOM      7  C   UNL     1      -0.371   0.666   1.989  1.00  0.00     0.315 A 
ATOM      8  C   UNL     1       1.007   0.751   1.883  1.00  0.00     0.082 A 
ATOM      9  C   UNL     1       1.685   0.320   0.761  1.00  0.00     0.020 A 
ATOM     10  C   UNL     1       0.945  -0.207  -0.268  1.00  0.00     0.120 A 
ATOM     11  N   UNL     1       1.810  -0.551  -1.232  1.00  0.00    -0.349 N 
ATOM     12  C   UNL     1       3.074  -0.282  -0.899  1.00  0.00     0.047 A 
ATOM     13  C   UNL     1       3.009   0.276   0.375  1.00  0.00     0.008 A 
ATOM     14  C   UNL     1       4.175   0.666   1.000  1.00  0.00     0.011 A 
ATOM     15  C   UNL     1       5.421   0.519   0.398  1.00  0.00     0.001 A 
ATOM     16  C   UNL     1       5.475  -0.039  -0.873  1.00  0.00     0.002 A 
ATOM     17  C   UNL     1       4.311  -0.428  -1.499  1.00  0.00     0.027 A 
ATOM     18  H   UNL     1       1.537  -0.986  -2.153  1.00  0.00     0.167 HD
ENDROOT
BRANCH   1  19
ATOM     19  C   UNL     1      -4.660  -0.597   0.073  1.00  0.00     0.038 C 
ATOM     20  C   UNL     1      -5.341   0.649  -0.481  1.00  0.00     0.009 C 
ENDBRANCH   1  19
TORSDOF 1
