REMARK SMILES CCC[C@@H](O)CC/C=C/C=C/C#CC#C/C=C/CO
REMARK SMILES IDX 8 1 9 2 7 3 6 4 4 5 3 6 2 7 1 8 5 9 10 11 11 12 12 13 13 14
REMARK SMILES IDX 14 15 15 16 16 17 17 18 18 19 19 20
REMARK H PARENT 5 10 19 21
REMARK Flexibility Score: inf
ROOT
ATOM      1  C   UNL     1      -2.212  -0.390   1.029  1.00  0.00    -0.027 C 
ATOM      2  C   UNL     1      -1.167  -0.278   1.841  1.00  0.00    -0.004 C 
ENDROOT
BRANCH   1   3
ATOM      3  C   UNL     1      -3.616  -0.483   1.526  1.00  0.00     0.030 C 
BRANCH   3   4
ATOM      4  C   UNL     1      -4.358   0.699   0.937  1.00  0.00     0.036 C 
BRANCH   4   5
ATOM      5  C   UNL     1      -4.348   0.680  -0.578  1.00  0.00     0.114 C 
BRANCH   5   6
ATOM      6  C   UNL     1      -5.021  -0.600  -1.013  1.00  0.00     0.031 C 
BRANCH   6   7
ATOM      7  C   UNL     1      -5.178  -0.670  -2.524  1.00  0.00    -0.001 C 
ATOM      8  C   UNL     1      -6.007   0.459  -3.066  1.00  0.00     0.004 C 
ENDBRANCH   6   7
ENDBRANCH   5   6
BRANCH   5   9
ATOM      9  O   UNL     1      -5.107   1.791  -0.985  1.00  0.00    -0.393 OA
ATOM     10  H   UNL     1      -4.492   2.575  -0.860  1.00  0.00     0.210 HD
ENDBRANCH   5   9
ENDBRANCH   4   5
ENDBRANCH   3   4
ENDBRANCH   1   3
BRANCH   2  11
ATOM     11  C   UNL     1       0.202  -0.188   1.337  1.00  0.00     0.009 C 
ATOM     12  C   UNL     1       1.194  -0.077   2.202  1.00  0.00     0.061 C 
BRANCH  12  13
ATOM     13  C   UNL     1       2.579   0.017   1.784  1.00  0.00    -0.061 C 
ATOM     14  C   UNL     1       3.738   0.112   1.445  1.00  0.00    -0.010 C 
BRANCH  14  15
ATOM     15  C   UNL     1       5.099   0.204   1.062  1.00  0.00    -0.010 C 
ATOM     16  C   UNL     1       6.262   0.263   0.742  1.00  0.00    -0.061 C 
BRANCH  16  17
ATOM     17  C   UNL     1       7.652   0.327   0.366  1.00  0.00     0.059 C 
ATOM     18  C   UNL     1       8.513  -0.643   0.647  1.00  0.00     0.010 C 
BRANCH  18  19
ATOM     19  C   UNL     1       9.959  -0.543   0.238  1.00  0.00     0.184 C 
BRANCH  19  20
ATOM     20  O   UNL     1      10.156   0.657  -0.422  1.00  0.00    -0.392 OA
ATOM     21  H   UNL     1      10.562   0.435  -1.312  1.00  0.00     0.210 HD
ENDBRANCH  19  20
ENDBRANCH  18  19
ENDBRANCH  16  17
ENDBRANCH  14  15
ENDBRANCH  12  13
ENDBRANCH   2  11
TORSDOF 12
