REMARK SMILES CCc1ccc2c3[nH]c4ccccc4c3cc[n+]2c1
REMARK SMILES IDX 3 1 19 2 18 3 17 4 16 5 15 6 14 7 13 8 12 9 11 10 10 11 9 12
REMARK SMILES IDX 8 13 7 14 6 15 5 16 4 17 2 19 1 20
REMARK H PARENT 8 18
REMARK Flexibility Score: inf
ROOT
ATOM      1  C   UNL     1      -3.084   0.118   0.702  1.00  0.00     0.016 A 
ATOM      2  C   UNL     1      -2.459   0.631  -0.413  1.00  0.00     0.318 A 
ATOM      3  N   UNL     1      -1.123   0.454  -0.534  1.00  0.00    -0.165 N 
ATOM      4  C   UNL     1      -0.483   0.950  -1.624  1.00  0.00     0.315 A 
ATOM      5  C   UNL     1       0.873   0.810  -1.818  1.00  0.00     0.082 A 
ATOM      6  C   UNL     1       1.600   0.141  -0.867  1.00  0.00     0.020 A 
ATOM      7  C   UNL     1       2.925  -0.179  -0.730  1.00  0.00     0.008 A 
ATOM      8  C   UNL     1       4.005   0.090  -1.559  1.00  0.00     0.011 A 
ATOM      9  C   UNL     1       5.251  -0.357  -1.172  1.00  0.00     0.001 A 
ATOM     10  C   UNL     1       5.454  -1.061   0.013  1.00  0.00     0.002 A 
ATOM     11  C   UNL     1       4.374  -1.321   0.827  1.00  0.00     0.027 A 
ATOM     12  C   UNL     1       3.114  -0.885   0.462  1.00  0.00     0.047 A 
ATOM     13  N   UNL     1       1.892  -0.974   1.019  1.00  0.00    -0.349 N 
ATOM     14  C   UNL     1       0.970  -0.371   0.248  1.00  0.00     0.120 A 
ATOM     15  C   UNL     1      -0.409  -0.191   0.379  1.00  0.00     0.234 A 
ATOM     16  C   UNL     1      -1.021  -0.719   1.516  1.00  0.00     0.082 A 
ATOM     17  C   UNL     1      -2.400  -0.559   1.681  1.00  0.00     0.017 A 
ATOM     18  H   UNL     1       1.718  -1.453   1.927  1.00  0.00     0.167 HD
ENDROOT
BRANCH   1  19
ATOM     19  C   UNL     1      -4.549   0.303   0.851  1.00  0.00     0.038 C 
ATOM     20  C   UNL     1      -5.314  -0.839   0.225  1.00  0.00     0.009 C 
ENDBRANCH   1  19
TORSDOF 1
