REMARK  Name = 154573746
REMARK  14 active torsions:
REMARK  status: ('A' for Active; 'I' for Inactive)
REMARK    1  A    between atoms: O_4  and  C_32
REMARK    2  A    between atoms: O_4  and  C_34
REMARK    3  A    between atoms: O_6  and  C_31
REMARK    4  A    between atoms: O_6  and  C_41
REMARK    5  A    between atoms: N_10  and  C_19
REMARK    6  A    between atoms: N_12  and  C_27
REMARK    7  A    between atoms: N_14  and  C_29
REMARK    8  A    between atoms: N_14  and  C_38
REMARK    9  A    between atoms: N_14  and  C_39
REMARK   10  A    between atoms: N_15  and  C_28
REMARK   11  A    between atoms: C_18  and  C_25
REMARK   12  A    between atoms: C_29  and  C_32
REMARK   13  A    between atoms: C_40  and  C_42
REMARK   14  A    between atoms: C_44  and  C_45
REMARK                            x       y       z     vdW  Elec       q    Type
REMARK                         _______ _______ _______ _____ _____    ______ ____
ROOT
ATOM      1  F   UNL     1      -1.012  -2.318   0.627  0.00  0.00    +0.000 F 
ATOM      2  F   UNL     1       0.653  -0.938   0.856  0.00  0.00    +0.000 F 
ATOM      3  F   UNL     1       1.022  -3.081   0.795  0.00  0.00    +0.000 F 
ATOM      4  C   UNL     1       0.280  -2.083   0.237  0.00  0.00    +0.000 C 
ENDROOT
BRANCH   4   7
ATOM      5  O   UNL     1      -0.767  -2.597  -1.893  0.00  0.00    +0.000 OA
ATOM      6  O   UNL     1       1.299  -1.772  -2.022  0.00  0.00    +0.000 OA
ATOM      7  C   UNL     1       0.357  -2.101  -1.313  0.00  0.00    +0.000 C 
ENDBRANCH   4   7
TORSDOF 1
REMARK  Name = 154573746
REMARK  14 active torsions:
REMARK  status: ('A' for Active; 'I' for Inactive)
REMARK    1  A    between atoms: O_4  and  C_32
REMARK    2  A    between atoms: O_4  and  C_34
REMARK    3  A    between atoms: O_6  and  C_31
REMARK    4  A    between atoms: O_6  and  C_41
REMARK    5  A    between atoms: N_10  and  C_19
REMARK    6  A    between atoms: N_12  and  C_27
REMARK    7  A    between atoms: N_14  and  C_29
REMARK    8  A    between atoms: N_14  and  C_38
REMARK    9  A    between atoms: N_14  and  C_39
REMARK   10  A    between atoms: N_15  and  C_28
REMARK   11  A    between atoms: C_18  and  C_25
REMARK   12  A    between atoms: C_29  and  C_32
REMARK   13  A    between atoms: C_40  and  C_42
REMARK   14  A    between atoms: C_44  and  C_45
REMARK                            x       y       z     vdW  Elec       q    Type
REMARK                         _______ _______ _______ _____ _____    ______ ____
ROOT
ATOM      1  O   UNL     1       6.758  -6.933  -2.297  0.00  0.00    +0.000 OA
ATOM      2  N   UNL     1       7.127  -4.653  -1.994  0.00  0.00    +0.000 N 
ATOM      3  N   UNL     1       7.263  -2.365  -1.223  0.00  0.00    +0.000 NA
ATOM      4  N   UNL     1       7.211  -0.147  -0.324  0.00  0.00    +0.000 N 
ATOM      5  N   UNL     1       8.844  -1.687   0.364  0.00  0.00    +0.000 NA
ATOM      6  C   UNL     1       7.766  -3.633  -1.207  0.00  0.00    +0.000 A 
ATOM      7  C   UNL     1       8.837  -3.992  -0.408  0.00  0.00    +0.000 A 
ATOM      8  C   UNL     1       9.305  -5.386  -0.357  0.00  0.00    +0.000 A 
ATOM      9  C   UNL     1       7.413  -5.997  -1.843  0.00  0.00    +0.000 A 
ATOM     10  C   UNL     1       8.606  -6.319  -1.025  0.00  0.00    +0.000 A 
ATOM     11  C   UNL     1       9.351  -2.946   0.334  0.00  0.00    +0.000 A 
ATOM     12  C   UNL     1       7.783  -1.437  -0.415  0.00  0.00    +0.000 A 
ATOM     13  C   UNL     1      10.509  -5.761   0.448  0.00  0.00    +0.000 C 
ATOM     14  H   UNL     1       7.824   0.605  -0.156  0.00  0.00    +0.000 HD
ENDROOT
BRANCH   2  15
ATOM     15  C   UNL     1       5.884  -4.285  -2.553  0.00  0.00    +0.000 A 
ATOM     16  C   UNL     1       5.716  -4.100  -3.937  0.00  0.00    +0.000 A 
ATOM     17  C   UNL     1       4.876  -3.955  -1.655  0.00  0.00    +0.000 A 
ATOM     18  C   UNL     1       4.577  -3.437  -4.400  0.00  0.00    +0.000 A 
ATOM     19  C   UNL     1       3.804  -3.231  -2.107  0.00  0.00    +0.000 A 
ATOM     20  C   UNL     1       3.674  -2.930  -3.461  0.00  0.00    +0.000 A 
BRANCH  18  22
ATOM     21  O   UNL     1       5.884  -4.378  -6.917  0.00  0.00    +0.000 OA
ATOM     22  N   UNL     1       4.230  -3.225  -5.753  0.00  0.00    +0.000 N 
ATOM     23  C   UNL     1       4.845  -3.735  -6.874  0.00  0.00    +0.000 C 
ATOM     24  H   UNL     1       3.454  -2.640  -5.914  0.00  0.00    +0.000 HD
BRANCH  23  25
ATOM     25  C   UNL     1       4.064  -3.437  -8.116  0.00  0.00    +0.000 C 
ATOM     26  C   UNL     1       4.507  -3.827  -9.319  0.00  0.00    +0.000 C 
ENDBRANCH  23  25
ENDBRANCH  18  22
ENDBRANCH   2  15
BRANCH   4  27
ATOM     27  C   UNL     1       5.830   0.159  -0.454  0.00  0.00    +0.000 A 
ATOM     28  C   UNL     1       5.327   1.327  -1.071  0.00  0.00    +0.000 A 
ATOM     29  C   UNL     1       3.008   0.599  -0.744  0.00  0.00    +0.000 A 
ATOM     30  C   UNL     1       4.889  -0.669   0.168  0.00  0.00    +0.000 A 
ATOM     31  C   UNL     1       3.929   1.503  -1.258  0.00  0.00    +0.000 A 
ATOM     32  C   UNL     1       3.511  -0.442   0.038  0.00  0.00    +0.000 A 
BRANCH  28  33
ATOM     33  O   UNL     1       6.039   2.380  -1.592  0.00  0.00    +0.000 OA
ATOM     34  C   UNL     1       7.375   2.564  -1.154  0.00  0.00    +0.000 C 
ENDBRANCH  28  33
BRANCH  29  35
ATOM     35  O   UNL     1       1.640   0.658  -0.905  0.00  0.00    +0.000 OA
BRANCH  35  36
ATOM     36  C   UNL     1       1.134   1.329  -2.074  0.00  0.00    +0.000 C 
BRANCH  36  37
ATOM     37  C   UNL     1      -0.295   0.864  -2.540  0.00  0.00    +0.000 C 
BRANCH  37  38
ATOM     38  N   UNL     1      -1.416   0.827  -1.566  0.00  0.00    +0.000 N 
ATOM     39  C   UNL     1      -1.710   2.164  -1.041  0.00  0.00    +0.000 C 
ATOM     40  C   UNL     1      -2.642   0.321  -2.218  0.00  0.00    +0.000 C 
ATOM     41  H   UNL     1      -1.132   0.212  -0.803  0.00  0.00    +0.000 HD
ENDBRANCH  37  38
ENDBRANCH  36  37
ENDBRANCH  35  36
ENDBRANCH  29  35
ENDBRANCH   4  27
TORSDOF 9
