REMARK SMILES Cc1ccc(NC(=O)c2ccc(CN3CC[NH+](C)CC3)cc2)cc1Nc1nccc(-c2cccnc2)n1
REMARK SMILES IDX 24 1 2 2 3 3 4 4 5 5 23 6 1 7 25 8 26 10 30 11 29 12 37 13
REMARK SMILES IDX 28 14 27 15 31 16 33 17 32 18 34 19 35 20 36 21 6 22 7 23
REMARK SMILES IDX 8 25 9 26 10 27 22 28 11 29 21 30 12 31 13 32 14 33 15 34
REMARK SMILES IDX 20 35 16 36 19 37 17 38 18 39
REMARK H PARENT 25 9 6 24 17 40
REMARK Flexibility Score: inf
ROOT
ATOM      1  C   UNL     1     -48.825  17.578 -33.758  1.00  0.00     0.046 A 
ATOM      2  C   UNL     1     -49.012  18.006 -35.084  1.00  0.00    -0.027 A 
ATOM      3  C   UNL     1     -48.043  18.703 -35.756  1.00  0.00     0.008 A 
ATOM      4  C   UNL     1     -46.853  18.991 -35.112  1.00  0.00     0.026 A 
ATOM      5  C   UNL     1     -46.610  18.602 -33.822  1.00  0.00     0.043 A 
ATOM      6  C   UNL     1     -47.621  17.890 -33.162  1.00  0.00     0.052 A 
ATOM      7  C   UNL     1     -50.272  17.723 -35.822  1.00  0.00     0.046 C 
ENDROOT
BRANCH   1   8
ATOM      8  N   UNL     1     -49.876  16.868 -33.155  1.00  0.00    -0.324 N 
ATOM      9  H   UNL     1     -50.715  17.456 -32.822  1.00  0.00     0.170 HD
BRANCH   8  10
ATOM     10  C   UNL     1     -49.979  15.489 -32.929  1.00  0.00     0.227 A 
ATOM     11  C   UNL     1     -51.015  13.396 -33.440  1.00  0.00     0.077 A 
ATOM     12  C   UNL     1     -50.222  12.750 -32.522  1.00  0.00     0.049 A 
ATOM     13  N   UNL     1     -50.875  14.722 -33.615  1.00  0.00    -0.213 NA
ATOM     14  C   UNL     1     -49.304  13.546 -31.821  1.00  0.00     0.117 A 
ATOM     15  N   UNL     1     -49.219  14.857 -32.046  1.00  0.00    -0.221 NA
BRANCH  11  16
ATOM     16  C   UNL     1     -52.004  12.644 -34.222  1.00  0.00     0.019 A 
ATOM     17  C   UNL     1     -53.973  12.677 -35.531  1.00  0.00     0.021 A 
ATOM     18  C   UNL     1     -53.035  13.353 -34.794  1.00  0.00     0.013 A 
ATOM     19  C   UNL     1     -53.881  11.316 -35.691  1.00  0.00     0.111 A 
ATOM     20  N   UNL     1     -52.867  10.677 -35.118  1.00  0.00    -0.264 NA
ATOM     21  C   UNL     1     -51.903  11.292 -34.374  1.00  0.00     0.121 A 
ENDBRANCH  11  16
ENDBRANCH   8  10
ENDBRANCH   1   8
BRANCH   5  22
ATOM     22  N   UNL     1     -45.382  18.900 -33.171  1.00  0.00    -0.322 N 
ATOM     23  C   UNL     1     -45.246  19.905 -32.194  1.00  0.00     0.255 C 
ATOM     24  H   UNL     1     -44.526  18.347 -33.426  1.00  0.00     0.170 HD
ATOM     25  O   UNL     1     -46.302  20.562 -31.904  1.00  0.00    -0.269 OA
BRANCH  23  26
ATOM     26  C   UNL     1     -44.032  20.262 -31.492  1.00  0.00     0.040 A 
ATOM     27  C   UNL     1     -43.458  19.366 -30.626  1.00  0.00     0.014 A 
ATOM     28  C   UNL     1     -43.434  21.487 -31.675  1.00  0.00     0.014 A 
ATOM     29  C   UNL     1     -42.292  19.719 -29.960  1.00  0.00     0.006 A 
ATOM     30  C   UNL     1     -42.276  21.835 -31.012  1.00  0.00     0.006 A 
ATOM     31  C   UNL     1     -41.693  20.930 -30.135  1.00  0.00    -0.034 A 
BRANCH  31  32
ATOM     32  C   UNL     1     -40.467  21.354 -29.459  1.00  0.00     0.120 C 
BRANCH  32  33
ATOM     33  N   UNL     1     -39.625  20.286 -28.983  1.00  0.00    -0.288 NA
ATOM     34  C   UNL     1     -38.398  20.173 -29.708  1.00  0.00     0.146 C 
ATOM     35  C   UNL     1     -39.509  20.169 -27.571  1.00  0.00     0.146 C 
ATOM     36  C   UNL     1     -37.200  20.712 -28.988  1.00  0.00     0.277 C 
ATOM     37  C   UNL     1     -38.363  20.941 -26.982  1.00  0.00     0.277 C 
ATOM     38  N   UNL     1     -37.154  20.468 -27.586  1.00  0.00    -0.335 N 
ATOM     39  C   UNL     1     -36.063  21.269 -27.029  1.00  0.00     0.332 C 
ATOM     40  H   UNL     1     -37.005  19.478 -27.312  1.00  0.00     0.347 HD
ENDBRANCH  32  33
ENDBRANCH  31  32
ENDBRANCH  23  26
ENDBRANCH   5  22
TORSDOF 7
