REMARK SMILES Cc1ccc(NC(=O)c2ccc(CN3CCN(C)CC3)cc2)cc1Nc1nccc(-c2cccnc2)n1
REMARK SMILES IDX 24 1 2 2 3 3 4 4 5 5 23 6 1 7 25 8 26 10 30 11 29 12 37 13
REMARK SMILES IDX 28 14 27 15 31 16 33 17 32 18 34 19 35 20 36 21 6 22 7 23
REMARK SMILES IDX 8 25 9 26 10 27 22 28 11 29 21 30 12 31 13 32 14 33 15 34
REMARK SMILES IDX 20 35 16 36 19 37 17 38 18 39
REMARK H PARENT 25 9 6 24
REMARK Flexibility Score: inf
ROOT
ATOM      1  C   UNL     1     -22.105  12.288 -46.627  1.00  0.00     0.046 A 
ATOM      2  C   UNL     1     -21.885  11.961 -45.308  1.00  0.00    -0.027 A 
ATOM      3  C   UNL     1     -20.987  10.959 -45.059  1.00  0.00     0.008 A 
ATOM      4  C   UNL     1     -20.320  10.295 -46.110  1.00  0.00     0.026 A 
ATOM      5  C   UNL     1     -20.532  10.614 -47.423  1.00  0.00     0.043 A 
ATOM      6  C   UNL     1     -21.455  11.644 -47.655  1.00  0.00     0.052 A 
ATOM      7  C   UNL     1     -22.593  12.667 -44.198  1.00  0.00     0.046 C 
ENDROOT
BRANCH   1   8
ATOM      8  N   UNL     1     -23.046  13.313 -46.921  1.00  0.00    -0.324 N 
ATOM      9  H   UNL     1     -24.022  13.045 -47.158  1.00  0.00     0.170 HD
BRANCH   8  10
ATOM     10  C   UNL     1     -22.680  14.694 -46.897  1.00  0.00     0.227 A 
ATOM     11  C   UNL     1     -23.214  16.932 -47.424  1.00  0.00     0.077 A 
ATOM     12  C   UNL     1     -22.001  17.297 -46.888  1.00  0.00     0.049 A 
ATOM     13  N   UNL     1     -23.516  15.610 -47.407  1.00  0.00    -0.213 NA
ATOM     14  C   UNL     1     -21.129  16.349 -46.358  1.00  0.00     0.117 A 
ATOM     15  N   UNL     1     -21.515  15.062 -46.386  1.00  0.00    -0.221 NA
BRANCH  11  16
ATOM     16  C   UNL     1     -24.162  17.851 -47.997  1.00  0.00     0.019 A 
ATOM     17  C   UNL     1     -24.882  20.071 -48.510  1.00  0.00     0.021 A 
ATOM     18  C   UNL     1     -23.946  19.200 -47.940  1.00  0.00     0.013 A 
ATOM     19  C   UNL     1     -25.977  19.509 -49.102  1.00  0.00     0.111 A 
ATOM     20  N   UNL     1     -26.201  18.193 -49.163  1.00  0.00    -0.264 NA
ATOM     21  C   UNL     1     -25.289  17.382 -48.610  1.00  0.00     0.121 A 
ENDBRANCH  11  16
ENDBRANCH   8  10
ENDBRANCH   1   8
BRANCH   5  22
ATOM     22  N   UNL     1     -19.894   9.971 -48.503  1.00  0.00    -0.322 N 
ATOM     23  C   UNL     1     -18.713  10.334 -49.166  1.00  0.00     0.255 C 
ATOM     24  H   UNL     1     -20.374   9.094 -48.859  1.00  0.00     0.170 HD
ATOM     25  O   UNL     1     -18.107  11.364 -48.787  1.00  0.00    -0.269 OA
BRANCH  23  26
ATOM     26  C   UNL     1     -18.137   9.562 -50.292  1.00  0.00     0.040 A 
ATOM     27  C   UNL     1     -18.011   8.196 -50.284  1.00  0.00     0.014 A 
ATOM     28  C   UNL     1     -17.693  10.247 -51.407  1.00  0.00     0.014 A 
ATOM     29  C   UNL     1     -17.446   7.546 -51.386  1.00  0.00     0.006 A 
ATOM     30  C   UNL     1     -17.135   9.593 -52.497  1.00  0.00     0.006 A 
ATOM     31  C   UNL     1     -17.001   8.211 -52.503  1.00  0.00    -0.034 A 
BRANCH  31  32
ATOM     32  C   UNL     1     -16.399   7.558 -53.660  1.00  0.00     0.120 C 
BRANCH  32  33
ATOM     33  N   UNL     1     -16.672   6.196 -53.871  1.00  0.00    -0.297 NA
ATOM     34  C   UNL     1     -17.890   5.841 -54.520  1.00  0.00     0.100 C 
ATOM     35  C   UNL     1     -15.538   5.409 -54.290  1.00  0.00     0.100 C 
ATOM     36  C   UNL     1     -17.665   5.881 -56.017  1.00  0.00     0.099 C 
ATOM     37  C   UNL     1     -15.279   5.679 -55.743  1.00  0.00     0.099 C 
ATOM     38  N   UNL     1     -16.361   6.434 -56.346  1.00  0.00    -0.304 NA
ATOM     39  C   UNL     1     -16.237   6.432 -57.792  1.00  0.00     0.105 C 
ENDBRANCH  32  33
ENDBRANCH  31  32
ENDBRANCH  23  26
ENDBRANCH   5  22
TORSDOF 7
