REMARK SMILES Cc1ccc(NC(=O)c2ccc(CN3CCN(C)CC3)cc2)cc1Nc1nccc(-c2cccnc2)n1
REMARK SMILES IDX 24 1 2 2 3 3 4 4 5 5 23 6 1 7 25 8 26 10 30 11 29 12 37 13
REMARK SMILES IDX 28 14 27 15 31 16 33 17 32 18 34 19 35 20 36 21 6 22 7 23
REMARK SMILES IDX 8 25 9 26 10 27 22 28 11 29 21 30 12 31 13 32 14 33 15 34
REMARK SMILES IDX 20 35 16 36 19 37 17 38 18 39
REMARK H PARENT 25 9 6 24
REMARK Flexibility Score: inf
ROOT
ATOM      1  C   UNL     1     -50.993  16.546 -35.904  1.00  0.00     0.046 A 
ATOM      2  C   UNL     1     -50.211  16.040 -36.957  1.00  0.00    -0.027 A 
ATOM      3  C   UNL     1     -48.960  15.523 -36.709  1.00  0.00     0.008 A 
ATOM      4  C   UNL     1     -48.428  15.478 -35.433  1.00  0.00     0.026 A 
ATOM      5  C   UNL     1     -49.169  15.965 -34.385  1.00  0.00     0.043 A 
ATOM      6  C   UNL     1     -50.425  16.482 -34.654  1.00  0.00     0.052 A 
ATOM      7  C   UNL     1     -50.725  16.059 -38.345  1.00  0.00     0.046 C 
ENDROOT
BRANCH   1   8
ATOM      8  N   UNL     1     -52.267  17.058 -36.208  1.00  0.00    -0.324 N 
ATOM      9  H   UNL     1     -53.001  16.363 -36.566  1.00  0.00     0.170 HD
BRANCH   8  10
ATOM     10  C   UNL     1     -52.730  18.387 -36.106  1.00  0.00     0.227 A 
ATOM     11  C   UNL     1     -54.299  19.970 -35.451  1.00  0.00     0.077 A 
ATOM     12  C   UNL     1     -53.556  21.015 -35.953  1.00  0.00     0.049 A 
ATOM     13  N   UNL     1     -53.901  18.695 -35.525  1.00  0.00    -0.213 NA
ATOM     14  C   UNL     1     -52.346  20.689 -36.554  1.00  0.00     0.117 A 
ATOM     15  N   UNL     1     -52.021  19.412 -36.589  1.00  0.00    -0.221 NA
BRANCH  11  16
ATOM     16  C   UNL     1     -55.586  20.239 -34.799  1.00  0.00     0.019 A 
ATOM     17  C   UNL     1     -57.355  21.695 -34.086  1.00  0.00     0.021 A 
ATOM     18  C   UNL     1     -56.137  21.492 -34.713  1.00  0.00     0.013 A 
ATOM     19  C   UNL     1     -58.002  20.621 -33.551  1.00  0.00     0.111 A 
ATOM     20  N   UNL     1     -57.478  19.379 -33.625  1.00  0.00    -0.264 NA
ATOM     21  C   UNL     1     -56.310  19.196 -34.229  1.00  0.00     0.121 A 
ENDBRANCH  11  16
ENDBRANCH   8  10
ENDBRANCH   1   8
BRANCH   5  22
ATOM     22  N   UNL     1     -48.626  15.918 -33.062  1.00  0.00    -0.322 N 
ATOM     23  C   UNL     1     -48.731  14.731 -32.295  1.00  0.00     0.255 C 
ATOM     24  H   UNL     1     -48.150  16.740 -32.635  1.00  0.00     0.170 HD
ATOM     25  O   UNL     1     -49.331  13.759 -32.885  1.00  0.00    -0.269 OA
BRANCH  23  26
ATOM     26  C   UNL     1     -48.237  14.530 -30.955  1.00  0.00     0.040 A 
ATOM     27  C   UNL     1     -48.299  15.515 -29.996  1.00  0.00     0.014 A 
ATOM     28  C   UNL     1     -47.680  13.338 -30.583  1.00  0.00     0.014 A 
ATOM     29  C   UNL     1     -47.826  15.329 -28.710  1.00  0.00     0.006 A 
ATOM     30  C   UNL     1     -47.194  13.109 -29.303  1.00  0.00     0.006 A 
ATOM     31  C   UNL     1     -47.269  14.109 -28.365  1.00  0.00    -0.034 A 
BRANCH  31  32
ATOM     32  C   UNL     1     -46.780  13.921 -26.982  1.00  0.00     0.120 C 
BRANCH  32  33
ATOM     33  N   UNL     1     -45.433  14.367 -26.878  1.00  0.00    -0.297 NA
ATOM     34  C   UNL     1     -44.623  14.010 -28.007  1.00  0.00     0.100 C 
ATOM     35  C   UNL     1     -44.786  14.240 -25.627  1.00  0.00     0.100 C 
ATOM     36  C   UNL     1     -43.363  14.875 -27.966  1.00  0.00     0.099 C 
ATOM     37  C   UNL     1     -43.309  13.875 -25.765  1.00  0.00     0.099 C 
ATOM     38  N   UNL     1     -42.640  14.665 -26.753  1.00  0.00    -0.304 NA
ATOM     39  C   UNL     1     -42.072  15.883 -26.220  1.00  0.00     0.105 C 
ENDBRANCH  32  33
ENDBRANCH  31  32
ENDBRANCH  23  26
ENDBRANCH   5  22
TORSDOF 7
