REMARK SMILES Cc1ccc(NC(=O)c2ccc(CN3CC[NH+](C)CC3)cc2)cc1Nc1nccc(-c2cccnc2)n1
REMARK SMILES IDX 24 1 2 2 3 3 4 4 5 5 23 6 1 7 25 8 26 10 30 11 29 12 37 13
REMARK SMILES IDX 28 14 27 15 31 16 33 17 32 18 34 19 35 20 36 21 6 22 7 23
REMARK SMILES IDX 8 25 9 26 10 27 22 28 11 29 21 30 12 31 13 32 14 33 15 34
REMARK SMILES IDX 20 35 16 36 19 37 17 38 18 39
REMARK H PARENT 25 9 6 24 17 40
REMARK Flexibility Score: inf
ROOT
ATOM      1  C   UNL     1     -20.789  18.523 -45.318  1.00  0.00     0.046 A 
ATOM      2  C   UNL     1     -20.705  19.218 -44.130  1.00  0.00    -0.027 A 
ATOM      3  C   UNL     1     -20.717  18.480 -42.979  1.00  0.00     0.008 A 
ATOM      4  C   UNL     1     -20.812  17.073 -43.013  1.00  0.00     0.026 A 
ATOM      5  C   UNL     1     -20.896  16.378 -44.180  1.00  0.00     0.043 A 
ATOM      6  C   UNL     1     -20.882  17.152 -45.353  1.00  0.00     0.052 A 
ATOM      7  C   UNL     1     -20.606  20.686 -44.130  1.00  0.00     0.046 C 
ENDROOT
BRANCH   1   8
ATOM      8  N   UNL     1     -20.780  19.270 -46.518  1.00  0.00    -0.324 N 
ATOM      9  H   UNL     1     -19.904  19.640 -46.930  1.00  0.00     0.170 HD
BRANCH   8  10
ATOM     10  C   UNL     1     -21.998  19.535 -47.198  1.00  0.00     0.227 A 
ATOM     11  C   UNL     1     -24.109  18.841 -48.025  1.00  0.00     0.077 A 
ATOM     12  C   UNL     1     -24.261  20.122 -48.493  1.00  0.00     0.049 A 
ATOM     13  N   UNL     1     -22.932  18.595 -47.370  1.00  0.00    -0.213 NA
ATOM     14  C   UNL     1     -23.298  21.092 -48.316  1.00  0.00     0.117 A 
ATOM     15  N   UNL     1     -22.158  20.805 -47.666  1.00  0.00    -0.221 NA
BRANCH  11  16
ATOM     16  C   UNL     1     -25.093  17.782 -48.187  1.00  0.00     0.019 A 
ATOM     17  C   UNL     1     -27.307  17.054 -48.728  1.00  0.00     0.021 A 
ATOM     18  C   UNL     1     -26.369  18.059 -48.574  1.00  0.00     0.013 A 
ATOM     19  C   UNL     1     -26.912  15.755 -48.477  1.00  0.00     0.111 A 
ATOM     20  N   UNL     1     -25.670  15.494 -48.101  1.00  0.00    -0.264 NA
ATOM     21  C   UNL     1     -24.745  16.485 -47.949  1.00  0.00     0.121 A 
ENDBRANCH  11  16
ENDBRANCH   8  10
ENDBRANCH   1   8
BRANCH   5  22
ATOM     22  N   UNL     1     -20.996  14.966 -44.287  1.00  0.00    -0.322 N 
ATOM     23  C   UNL     1     -19.930  14.073 -44.482  1.00  0.00     0.255 C 
ATOM     24  H   UNL     1     -21.950  14.507 -44.218  1.00  0.00     0.170 HD
ATOM     25  O   UNL     1     -18.756  14.507 -44.578  1.00  0.00    -0.269 OA
BRANCH  23  26
ATOM     26  C   UNL     1     -20.124  12.611 -44.583  1.00  0.00     0.040 A 
ATOM     27  C   UNL     1     -19.835  11.747 -43.576  1.00  0.00     0.014 A 
ATOM     28  C   UNL     1     -20.624  12.066 -45.758  1.00  0.00     0.014 A 
ATOM     29  C   UNL     1     -20.044  10.368 -43.748  1.00  0.00     0.006 A 
ATOM     30  C   UNL     1     -20.834  10.721 -45.941  1.00  0.00     0.006 A 
ATOM     31  C   UNL     1     -20.540   9.856 -44.921  1.00  0.00    -0.034 A 
BRANCH  31  32
ATOM     32  C   UNL     1     -20.731   8.408 -45.032  1.00  0.00     0.120 C 
BRANCH  32  33
ATOM     33  N   UNL     1     -19.581   7.603 -44.887  1.00  0.00    -0.288 NA
ATOM     34  C   UNL     1     -19.484   6.838 -43.700  1.00  0.00     0.146 C 
ATOM     35  C   UNL     1     -19.235   6.924 -46.085  1.00  0.00     0.146 C 
ATOM     36  C   UNL     1     -18.210   6.050 -43.570  1.00  0.00     0.277 C 
ATOM     37  C   UNL     1     -18.090   5.951 -45.904  1.00  0.00     0.277 C 
ATOM     38  N   UNL     1     -17.328   6.229 -44.702  1.00  0.00    -0.335 N 
ATOM     39  C   UNL     1     -16.278   5.231 -44.618  1.00  0.00     0.332 C 
ATOM     40  H   UNL     1     -16.914   7.179 -44.684  1.00  0.00     0.347 HD
ENDBRANCH  32  33
ENDBRANCH  31  32
ENDBRANCH  23  26
ENDBRANCH   5  22
TORSDOF 7
