REMARK SMILES Cc1ccc(NC(=O)c2ccc(CN3CC[NH+](C)CC3)cc2)cc1Nc1nccc(-c2cccnc2)n1
REMARK SMILES IDX 24 1 2 2 3 3 4 4 5 5 23 6 1 7 25 8 26 10 30 11 29 12 37 13
REMARK SMILES IDX 28 14 27 15 31 16 33 17 32 18 34 19 35 20 36 21 6 22 7 23
REMARK SMILES IDX 8 25 9 26 10 27 22 28 11 29 21 30 12 31 13 32 14 33 15 34
REMARK SMILES IDX 20 35 16 36 19 37 17 38 18 39
REMARK H PARENT 25 9 6 24 17 40
REMARK Flexibility Score: inf
ROOT
ATOM      1  C   UNL     1     -41.935  19.733 -27.145  1.00  0.00     0.046 A 
ATOM      2  C   UNL     1     -41.768  20.418 -28.349  1.00  0.00    -0.027 A 
ATOM      3  C   UNL     1     -42.619  21.423 -28.752  1.00  0.00     0.008 A 
ATOM      4  C   UNL     1     -43.679  21.769 -27.942  1.00  0.00     0.026 A 
ATOM      5  C   UNL     1     -43.877  21.118 -26.749  1.00  0.00     0.043 A 
ATOM      6  C   UNL     1     -43.000  20.102 -26.359  1.00  0.00     0.052 A 
ATOM      7  C   UNL     1     -40.642  20.048 -29.213  1.00  0.00     0.046 C 
ENDROOT
BRANCH   1   8
ATOM      8  N   UNL     1     -41.020  18.732 -26.814  1.00  0.00    -0.324 N 
ATOM      9  H   UNL     1     -40.145  18.619 -27.426  1.00  0.00     0.170 HD
BRANCH   8  10
ATOM     10  C   UNL     1     -41.096  17.810 -25.735  1.00  0.00     0.227 A 
ATOM     11  C   UNL     1     -41.943  15.750 -24.867  1.00  0.00     0.077 A 
ATOM     12  C   UNL     1     -41.291  15.955 -23.672  1.00  0.00     0.049 A 
ATOM     13  N   UNL     1     -41.826  16.672 -25.844  1.00  0.00    -0.213 NA
ATOM     14  C   UNL     1     -40.538  17.119 -23.546  1.00  0.00     0.117 A 
ATOM     15  N   UNL     1     -40.475  17.980 -24.566  1.00  0.00    -0.221 NA
BRANCH  11  16
ATOM     16  C   UNL     1     -42.755  14.543 -25.075  1.00  0.00     0.019 A 
ATOM     17  C   UNL     1     -43.990  12.779 -23.997  1.00  0.00     0.021 A 
ATOM     18  C   UNL     1     -43.220  13.916 -23.908  1.00  0.00     0.013 A 
ATOM     19  C   UNL     1     -44.281  12.288 -25.263  1.00  0.00     0.111 A 
ATOM     20  N   UNL     1     -43.817  12.920 -26.346  1.00  0.00    -0.264 NA
ATOM     21  C   UNL     1     -43.054  14.044 -26.291  1.00  0.00     0.121 A 
ENDBRANCH  11  16
ENDBRANCH   8  10
ENDBRANCH   1   8
BRANCH   5  22
ATOM     22  N   UNL     1     -44.966  21.436 -25.859  1.00  0.00    -0.322 N 
ATOM     23  C   UNL     1     -46.258  20.904 -26.097  1.00  0.00     0.255 C 
ATOM     24  H   UNL     1     -44.702  22.062 -25.074  1.00  0.00     0.170 HD
ATOM     25  O   UNL     1     -46.438  20.156 -27.089  1.00  0.00    -0.269 OA
BRANCH  23  26
ATOM     26  C   UNL     1     -47.335  21.245 -25.178  1.00  0.00     0.040 A 
ATOM     27  C   UNL     1     -48.650  21.260 -25.640  1.00  0.00     0.014 A 
ATOM     28  C   UNL     1     -47.161  21.563 -23.858  1.00  0.00     0.014 A 
ATOM     29  C   UNL     1     -49.717  21.571 -24.836  1.00  0.00     0.006 A 
ATOM     30  C   UNL     1     -48.217  21.881 -23.021  1.00  0.00     0.006 A 
ATOM     31  C   UNL     1     -49.507  21.891 -23.496  1.00  0.00    -0.034 A 
BRANCH  31  32
ATOM     32  C   UNL     1     -50.683  22.224 -22.615  1.00  0.00     0.120 C 
BRANCH  32  33
ATOM     33  N   UNL     1     -51.515  23.136 -23.301  1.00  0.00    -0.288 NA
ATOM     34  C   UNL     1     -51.249  24.507 -23.228  1.00  0.00     0.146 C 
ATOM     35  C   UNL     1     -52.763  22.685 -23.775  1.00  0.00     0.146 C 
ATOM     36  C   UNL     1     -52.444  25.420 -23.318  1.00  0.00     0.277 C 
ATOM     37  C   UNL     1     -53.909  23.654 -23.629  1.00  0.00     0.277 C 
ATOM     38  N   UNL     1     -53.437  24.912 -24.230  1.00  0.00    -0.335 N 
ATOM     39  C   UNL     1     -54.589  25.790 -24.271  1.00  0.00     0.332 C 
ATOM     40  H   UNL     1     -53.046  24.743 -25.162  1.00  0.00     0.347 HD
ENDBRANCH  32  33
ENDBRANCH  31  32
ENDBRANCH  23  26
ENDBRANCH   5  22
TORSDOF 7
