REMARK SMILES Cc1ccc(NC(=O)c2ccc(CN3CCN(C)CC3)cc2)cc1Nc1nccc(-c2cccnc2)n1
REMARK SMILES IDX 24 1 2 2 3 3 4 4 5 5 23 6 1 7 25 8 26 10 30 11 29 12 37 13
REMARK SMILES IDX 28 14 27 15 31 16 33 17 32 18 34 19 35 20 36 21 6 22 7 23
REMARK SMILES IDX 8 25 9 26 10 27 22 28 11 29 21 30 12 31 13 32 14 33 15 34
REMARK SMILES IDX 20 35 16 36 19 37 17 38 18 39
REMARK H PARENT 25 9 6 24
REMARK Flexibility Score: inf
ROOT
ATOM      1  C   UNL     1     -22.733  10.643 -45.448  1.00  0.00     0.046 A 
ATOM      2  C   UNL     1     -21.766   9.906 -44.744  1.00  0.00    -0.027 A 
ATOM      3  C   UNL     1     -20.609  10.488 -44.330  1.00  0.00     0.008 A 
ATOM      4  C   UNL     1     -20.357  11.839 -44.598  1.00  0.00     0.026 A 
ATOM      5  C   UNL     1     -21.275  12.595 -45.285  1.00  0.00     0.043 A 
ATOM      6  C   UNL     1     -22.450  11.966 -45.694  1.00  0.00     0.052 A 
ATOM      7  C   UNL     1     -21.997   8.492 -44.447  1.00  0.00     0.046 C 
ENDROOT
BRANCH   1   8
ATOM      8  N   UNL     1     -23.901   9.959 -45.830  1.00  0.00    -0.324 N 
ATOM      9  H   UNL     1     -24.845  10.416 -45.584  1.00  0.00     0.170 HD
BRANCH   8  10
ATOM     10  C   UNL     1     -23.938   8.711 -46.516  1.00  0.00     0.227 A 
ATOM     11  C   UNL     1     -25.283   6.997 -47.501  1.00  0.00     0.077 A 
ATOM     12  C   UNL     1     -24.166   6.291 -47.870  1.00  0.00     0.049 A 
ATOM     13  N   UNL     1     -25.147   8.166 -46.846  1.00  0.00    -0.213 NA
ATOM     14  C   UNL     1     -22.939   6.844 -47.535  1.00  0.00     0.117 A 
ATOM     15  N   UNL     1     -22.876   8.010 -46.884  1.00  0.00    -0.221 NA
BRANCH  11  16
ATOM     16  C   UNL     1     -26.629   6.489 -47.822  1.00  0.00     0.019 A 
ATOM     17  C   UNL     1     -28.696   5.414 -47.230  1.00  0.00     0.021 A 
ATOM     18  C   UNL     1     -27.427   5.887 -46.889  1.00  0.00     0.013 A 
ATOM     19  C   UNL     1     -29.161   5.549 -48.524  1.00  0.00     0.111 A 
ATOM     20  N   UNL     1     -28.357   6.142 -49.416  1.00  0.00    -0.264 NA
ATOM     21  C   UNL     1     -27.128   6.609 -49.115  1.00  0.00     0.121 A 
ENDBRANCH  11  16
ENDBRANCH   8  10
ENDBRANCH   1   8
BRANCH   5  22
ATOM     22  N   UNL     1     -21.028  13.962 -45.551  1.00  0.00    -0.322 N 
ATOM     23  C   UNL     1     -19.749  14.532 -45.314  1.00  0.00     0.255 C 
ATOM     24  H   UNL     1     -21.800  14.574 -45.931  1.00  0.00     0.170 HD
ATOM     25  O   UNL     1     -18.871  13.743 -44.852  1.00  0.00    -0.269 OA
BRANCH  23  26
ATOM     26  C   UNL     1     -19.428  15.942 -45.573  1.00  0.00     0.040 A 
ATOM     27  C   UNL     1     -18.230  16.519 -45.221  1.00  0.00     0.014 A 
ATOM     28  C   UNL     1     -20.361  16.747 -46.203  1.00  0.00     0.014 A 
ATOM     29  C   UNL     1     -17.960  17.863 -45.489  1.00  0.00     0.006 A 
ATOM     30  C   UNL     1     -20.086  18.072 -46.464  1.00  0.00     0.006 A 
ATOM     31  C   UNL     1     -18.889  18.664 -46.116  1.00  0.00    -0.034 A 
BRANCH  31  32
ATOM     32  C   UNL     1     -18.626  20.107 -46.398  1.00  0.00     0.120 C 
BRANCH  32  33
ATOM     33  N   UNL     1     -19.359  20.593 -47.515  1.00  0.00    -0.297 NA
ATOM     34  C   UNL     1     -18.674  21.604 -48.249  1.00  0.00     0.100 C 
ATOM     35  C   UNL     1     -20.687  20.979 -47.178  1.00  0.00     0.100 C 
ATOM     36  C   UNL     1     -19.388  21.848 -49.534  1.00  0.00     0.099 C 
ATOM     37  C   UNL     1     -21.480  21.500 -48.345  1.00  0.00     0.099 C 
ATOM     38  N   UNL     1     -20.772  21.566 -49.565  1.00  0.00    -0.304 NA
ATOM     39  C   UNL     1     -21.193  20.635 -50.566  1.00  0.00     0.105 C 
ENDBRANCH  32  33
ENDBRANCH  31  32
ENDBRANCH  23  26
ENDBRANCH   5  22
TORSDOF 7
