REMARK SMILES Cc1ccc(NC(=O)c2ccc(CN3CC[NH+](C)CC3)cc2)cc1Nc1nccc(-c2cccnc2)n1
REMARK SMILES IDX 24 1 2 2 3 3 4 4 5 5 23 6 1 7 25 8 26 10 30 11 29 12 37 13
REMARK SMILES IDX 28 14 27 15 31 16 33 17 32 18 34 19 35 20 36 21 6 22 7 23
REMARK SMILES IDX 8 25 9 26 10 27 22 28 11 29 21 30 12 31 13 32 14 33 15 34
REMARK SMILES IDX 20 35 16 36 19 37 17 38 18 39
REMARK H PARENT 25 9 6 24 17 40
REMARK Flexibility Score: inf
ROOT
ATOM      1  C   UNL     1     -20.139  10.315 -46.196  1.00  0.00     0.046 A 
ATOM      2  C   UNL     1     -20.163   9.441 -45.115  1.00  0.00    -0.027 A 
ATOM      3  C   UNL     1     -20.234   9.877 -43.808  1.00  0.00     0.008 A 
ATOM      4  C   UNL     1     -20.284  11.221 -43.517  1.00  0.00     0.026 A 
ATOM      5  C   UNL     1     -20.261  12.110 -44.565  1.00  0.00     0.043 A 
ATOM      6  C   UNL     1     -20.190  11.656 -45.890  1.00  0.00     0.052 A 
ATOM      7  C   UNL     1     -20.111   7.988 -45.394  1.00  0.00     0.046 C 
ENDROOT
BRANCH   1   8
ATOM      8  N   UNL     1     -20.068   9.820 -47.486  1.00  0.00    -0.324 N 
ATOM      9  H   UNL     1     -21.004   9.520 -47.927  1.00  0.00     0.170 HD
BRANCH   8  10
ATOM     10  C   UNL     1     -18.920   9.658 -48.306  1.00  0.00     0.227 A 
ATOM     11  C   UNL     1     -17.092   8.240 -48.899  1.00  0.00     0.077 A 
ATOM     12  C   UNL     1     -16.670   9.170 -49.809  1.00  0.00     0.049 A 
ATOM     13  N   UNL     1     -18.190   8.525 -48.193  1.00  0.00    -0.213 NA
ATOM     14  C   UNL     1     -17.400  10.330 -49.940  1.00  0.00     0.117 A 
ATOM     15  N   UNL     1     -18.497  10.547 -49.195  1.00  0.00    -0.221 NA
BRANCH  11  16
ATOM     16  C   UNL     1     -16.409   6.959 -48.657  1.00  0.00     0.019 A 
ATOM     17  C   UNL     1     -16.533   4.708 -47.746  1.00  0.00     0.021 A 
ATOM     18  C   UNL     1     -17.090   5.938 -48.014  1.00  0.00     0.013 A 
ATOM     19  C   UNL     1     -15.225   4.529 -48.159  1.00  0.00     0.111 A 
ATOM     20  N   UNL     1     -14.556   5.513 -48.784  1.00  0.00    -0.264 NA
ATOM     21  C   UNL     1     -15.124   6.730 -49.043  1.00  0.00     0.121 A 
ENDBRANCH  11  16
ENDBRANCH   8  10
ENDBRANCH   1   8
BRANCH   5  22
ATOM     22  N   UNL     1     -20.312  13.520 -44.281  1.00  0.00    -0.322 N 
ATOM     23  C   UNL     1     -19.171  14.343 -44.355  1.00  0.00     0.255 C 
ATOM     24  H   UNL     1     -21.222  13.964 -44.008  1.00  0.00     0.170 HD
ATOM     25  O   UNL     1     -18.080  13.774 -44.689  1.00  0.00    -0.269 OA
BRANCH  23  26
ATOM     26  C   UNL     1     -19.154  15.763 -44.083  1.00  0.00     0.040 A 
ATOM     27  C   UNL     1     -20.315  16.474 -43.888  1.00  0.00     0.014 A 
ATOM     28  C   UNL     1     -17.982  16.474 -44.008  1.00  0.00     0.014 A 
ATOM     29  C   UNL     1     -20.351  17.827 -43.627  1.00  0.00     0.006 A 
ATOM     30  C   UNL     1     -17.993  17.834 -43.748  1.00  0.00     0.006 A 
ATOM     31  C   UNL     1     -19.182  18.520 -43.556  1.00  0.00    -0.034 A 
BRANCH  31  32
ATOM     32  C   UNL     1     -19.155  19.975 -43.281  1.00  0.00     0.120 C 
BRANCH  32  33
ATOM     33  N   UNL     1     -19.705  20.320 -42.007  1.00  0.00    -0.288 NA
ATOM     34  C   UNL     1     -19.089  19.682 -40.888  1.00  0.00     0.146 C 
ATOM     35  C   UNL     1     -19.823  21.759 -41.829  1.00  0.00     0.146 C 
ATOM     36  C   UNL     1     -17.724  20.250 -40.567  1.00  0.00     0.277 C 
ATOM     37  C   UNL     1     -19.098  22.234 -40.605  1.00  0.00     0.277 C 
ATOM     38  N   UNL     1     -17.767  21.698 -40.475  1.00  0.00    -0.335 N 
ATOM     39  C   UNL     1     -16.877  22.237 -41.480  1.00  0.00     0.332 C 
ATOM     40  H   UNL     1     -17.401  22.035 -39.548  1.00  0.00     0.347 HD
ENDBRANCH  32  33
ENDBRANCH  31  32
ENDBRANCH  23  26
ENDBRANCH   5  22
TORSDOF 7
