1AZ8_lig_vina_out.pdbqt
 OpenBabel04202311133D

 32 33  0  0  1  0  0  0  0  0999 V2000
   31.1300   11.5190   18.0980 C   0  0  0  0  0  3  0  0  0  0  0  0
   29.6700   11.6500   18.2500 C   0  0  2  0  0  3  0  0  0  0  0  0
   29.1430   13.0330   18.1280 C   0  0  0  0  0  0  0  0  0  0  0  0
   28.1890   15.5420   17.8180 C   0  0  0  0  0  3  0  0  0  0  0  0
   27.9170   14.8570   18.9800 C   0  0  0  0  0  3  0  0  0  0  0  0
   28.9400   14.9910   16.7930 C   0  0  0  0  0  0  0  0  0  0  0  0
   28.3990   13.5690   19.1540 C   0  0  0  0  0  3  0  0  0  0  0  0
   29.4240   13.7120   16.9530 C   0  0  0  0  0  3  0  0  0  0  0  0
   29.1930   15.7730   15.5820 C   0  0  0  0  0  0  0  0  0  0  0  0
   30.1180   15.3530   14.5900 N   0  0  0  0  0  0  0  0  0  0  0  0
   28.5610   16.8760   15.4060 N   0  0  0  0  0  0  0  0  0  0  0  0
   30.8570   15.9920   14.2320 H   0  0  0  0  0  0  0  0  0  0  0  0
   30.0140   14.3660   14.2400 H   0  0  0  0  0  0  0  0  0  0  0  0
   28.7340   17.4360   14.5540 H   0  0  0  0  0  0  0  0  0  0  0  0
   29.2150   11.1300   19.6190 C   0  0  0  0  0  2  0  0  0  0  0  0
   28.2210   10.0510   19.5420 C   0  0  0  0  0  0  0  0  0  0  0  0
   28.2300    9.0960   18.7450 O   0  0  0  0  0  0  0  0  0  0  0  0
   27.1360   10.0590   20.4430 O   0  0  0  0  0  0  0  0  0  0  0  0
   25.9660   10.7800   20.1660 C   0  0  0  0  0  1  0  0  0  0  0  0
   31.7280   10.1770   18.2920 C   0  0  0  0  0  3  0  0  0  0  0  0
   33.1520   10.0420   17.9580 C   0  0  0  0  0  0  0  0  0  0  0  0
   33.5830    9.9550   16.6250 C   0  0  0  0  0  3  0  0  0  0  0  0
   34.1370   10.0030   18.9100 C   0  0  0  0  0  3  0  0  0  0  0  0
   34.9140    9.8370   16.2950 C   0  0  0  0  0  3  0  0  0  0  0  0
   35.4950    9.8820   18.5690 C   0  0  0  0  0  3  0  0  0  0  0  0
   35.9010    9.7980   17.2570 C   0  0  0  0  0  0  0  0  0  0  0  0
   37.2990    9.6720   16.8680 C   0  0  0  0  0  0  0  0  0  0  0  0
   37.6680    8.5550   16.0830 N   0  0  0  0  0  0  0  0  0  0  0  0
   38.1980   10.5170   17.1990 N   0  0  0  0  0  0  0  0  0  0  0  0
   37.1750    8.3830   15.1670 H   0  0  0  0  0  0  0  0  0  0  0  0
   38.4170    7.8990   16.3950 H   0  0  0  0  0  0  0  0  0  0  0  0
   39.1760   10.3680   16.8880 H   0  0  0  0  0  0  0  0  0  0  0  0
  1 20  2  0  0  0  0
  2  1  1  1  0  0  0
  2 15  1  0  0  0  0
  3  2  1  0  0  0  0
  3  7  1  0  0  0  0
  4  5  1  0  0  0  0
  5  7  2  0  0  0  0
  6  8  1  0  0  0  0
  6  4  2  0  0  0  0
  8  3  2  0  0  0  0
  9  6  1  0  0  0  0
 10  9  1  0  0  0  0
 11  9  2  0  0  0  0
 12 10  1  0  0  0  0
 13 10  1  0  0  0  0
 14 11  1  0  0  0  0
 16 15  1  0  0  0  0
 16 18  1  0  0  0  0
 17 16  2  0  0  0  0
 19 18  1  0  0  0  0
 21 20  1  0  0  0  0
 21 23  1  0  0  0  0
 22 21  2  0  0  0  0
 24 22  1  0  0  0  0
 24 26  2  0  0  0  0
 25 23  2  0  0  0  0
 26 25  1  0  0  0  0
 27 29  2  0  0  0  0
 27 26  1  0  0  0  0
 28 31  1  0  0  0  0
 28 27  1  0  0  0  0
 30 28  1  0  0  0  0
 32 29  1  0  0  0  0
M  END
>  <Pose>
1

>  <Score>
-7.784

$$$$
1AZ8_lig_vina_out.pdbqt
 OpenBabel04202311133D

 32 33  0  0  1  0  0  0  0  0999 V2000
   27.1960   10.9320   17.9320 C   0  0  0  0  0  3  0  0  0  0  0  0
   28.5220   11.5680   18.0310 C   0  0  2  0  0  3  0  0  0  0  0  0
   28.5140   13.0530   18.0190 C   0  0  0  0  0  0  0  0  0  0  0  0
   28.4990   15.7520   17.9090 C   0  0  0  0  0  3  0  0  0  0  0  0
   28.0580   15.1230   19.0510 C   0  0  0  0  0  3  0  0  0  0  0  0
   28.9530   15.0510   16.8050 C   0  0  0  0  0  0  0  0  0  0  0  0
   28.0600   13.7380   19.1220 C   0  0  0  0  0  3  0  0  0  0  0  0
   28.9600   13.6750   16.8640 C   0  0  0  0  0  3  0  0  0  0  0  0
   29.4080   15.7810   15.6220 C   0  0  0  0  0  0  0  0  0  0  0  0
   30.3080   15.2140   14.6810 N   0  0  0  0  0  0  0  0  0  0  0  0
   28.9810   16.9750   15.4220 N   0  0  0  0  0  0  0  0  0  0  0  0
   31.1640   15.7200   14.3760 H   0  0  0  0  0  0  0  0  0  0  0  0
   30.0610   14.2590   14.3130 H   0  0  0  0  0  0  0  0  0  0  0  0
   29.2980   17.5000   14.5880 H   0  0  0  0  0  0  0  0  0  0  0  0
   29.4260   11.1280   16.8730 C   0  0  0  0  0  2  0  0  0  0  0  0
   30.7760   10.7300   17.2930 C   0  0  0  0  0  0  0  0  0  0  0  0
   31.3420   11.0490   18.3540 O   0  0  0  0  0  0  0  0  0  0  0  0
   31.5380    9.9040   16.4400 O   0  0  0  0  0  0  0  0  0  0  0  0
   32.9340    9.8370   16.5510 C   0  0  0  0  0  1  0  0  0  0  0  0
   27.0760    9.7060   17.1090 C   0  0  0  0  0  3  0  0  0  0  0  0
   25.7360    9.1120   17.0130 C   0  0  0  0  0  0  0  0  0  0  0  0
   25.1200    8.5210   18.1270 C   0  0  0  0  0  3  0  0  0  0  0  0
   25.0100    9.1040   15.8520 C   0  0  0  0  0  3  0  0  0  0  0  0
   23.8620    7.9680   18.0570 C   0  0  0  0  0  3  0  0  0  0  0  0
   23.7250    8.5380   15.7840 C   0  0  0  0  0  3  0  0  0  0  0  0
   23.1340    7.9630   16.8850 C   0  0  0  0  0  0  0  0  0  0  0  0
   21.8060    7.3670   16.8500 C   0  0  0  0  0  0  0  0  0  0  0  0
   20.9430    7.7380   15.7930 N   0  0  0  0  0  0  0  0  0  0  0  0
   21.3890    6.5310   17.7220 N   0  0  0  0  0  0  0  0  0  0  0  0
   21.2620    7.6060   14.7960 H   0  0  0  0  0  0  0  0  0  0  0  0
   19.9980    8.1390   15.9820 H   0  0  0  0  0  0  0  0  0  0  0  0
   20.4320    6.1430   17.6380 H   0  0  0  0  0  0  0  0  0  0  0  0
  1  2  1  0  0  0  0
  2 15  1  6  0  0  0
  3  2  1  0  0  0  0
  3  7  1  0  0  0  0
  4  5  1  0  0  0  0
  5  7  2  0  0  0  0
  6  8  1  0  0  0  0
  6  4  2  0  0  0  0
  8  3  2  0  0  0  0
  9  6  1  0  0  0  0
 10  9  1  0  0  0  0
 11  9  2  0  0  0  0
 12 10  1  0  0  0  0
 13 10  1  0  0  0  0
 14 11  1  0  0  0  0
 15 16  1  0  0  0  0
 16 17  2  0  0  0  0
 18 19  1  0  0  0  0
 18 16  1  0  0  0  0
 20  1  2  0  0  0  0
 21 20  1  0  0  0  0
 21 22  1  0  0  0  0
 23 21  2  0  0  0  0
 24 22  2  0  0  0  0
 25 23  1  0  0  0  0
 25 26  2  0  0  0  0
 26 24  1  0  0  0  0
 27 26  1  0  0  0  0
 27 29  2  0  0  0  0
 28 31  1  0  0  0  0
 28 27  1  0  0  0  0
 30 28  1  0  0  0  0
 32 29  1  0  0  0  0
M  END
>  <Pose>
2

>  <Score>
-7.588

$$$$
1AZ8_lig_vina_out.pdbqt
 OpenBabel04202311133D

 32 33  0  0  1  0  0  0  0  0999 V2000
   26.4350   11.3570   19.6480 C   0  0  0  0  0  2  0  0  0  0  0  0
   26.2930    9.8980   19.8030 C   0  0  2  0  0  3  0  0  0  0  0  0
   25.4050    9.2400   18.8120 C   0  0  0  0  0  0  0  0  0  0  0  0
   23.7240    8.0390   17.0700 C   0  0  0  0  0  3  0  0  0  0  0  0
   24.7880    8.7660   16.5860 C   0  0  0  0  0  3  0  0  0  0  0  0
   23.4790    7.8980   18.4250 C   0  0  0  0  0  0  0  0  0  0  0  0
   25.6600    9.3880   17.4680 C   0  0  0  0  0  3  0  0  0  0  0  0
   24.3370    8.5110   19.3100 C   0  0  0  0  0  3  0  0  0  0  0  0
   22.3300    7.1110   18.8730 C   0  0  0  0  0  0  0  0  0  0  0  0
   22.1450    6.7480   20.2330 N   0  0  0  0  0  0  0  0  0  0  0  0
   21.4560    6.7350   18.0120 N   0  0  0  0  0  0  0  0  0  0  0  0
   21.9520    5.7640   20.5100 H   0  0  0  0  0  0  0  0  0  0  0  0
   22.2140    7.5250   20.9400 H   0  0  0  0  0  0  0  0  0  0  0  0
   20.6400    6.1780   18.3190 H   0  0  0  0  0  0  0  0  0  0  0  0
   25.7350    9.5490   21.1880 C   0  0  0  0  0  2  0  0  0  0  0  0
   26.7670    9.1950   22.1720 C   0  0  0  0  0  0  0  0  0  0  0  0
   27.3180    8.0860   22.2960 O   0  0  0  0  0  0  0  0  0  0  0  0
   27.2050   10.1790   23.0820 O   0  0  0  0  0  0  0  0  0  0  0  0
   27.3240    9.9020   24.4510 C   0  0  0  0  0  1  0  0  0  0  0  0
   27.7880   11.9410   19.8000 C   0  0  0  0  0  2  0  0  0  0  0  0
   28.2130   12.8850   18.7590 C   0  0  0  0  0  0  0  0  0  0  0  0
   28.8210   12.4400   17.5750 C   0  0  0  0  0  3  0  0  0  0  0  0
   28.0380   14.2390   18.8690 C   0  0  0  0  0  3  0  0  0  0  0  0
   29.2170   13.3100   16.5850 C   0  0  0  0  0  3  0  0  0  0  0  0
   28.4440   15.1260   17.8570 C   0  0  0  0  0  3  0  0  0  0  0  0
   29.0380   14.6730   16.7020 C   0  0  0  0  0  0  0  0  0  0  0  0
   29.4710   15.5620   15.6340 C   0  0  0  0  0  0  0  0  0  0  0  0
   28.9330   16.8690   15.6030 N   0  0  0  0  0  0  0  0  0  0  0  0
   30.3090   15.2190   14.7320 N   0  0  0  0  0  0  0  0  0  0  0  0
   29.0330   17.4890   16.4500 H   0  0  0  0  0  0  0  0  0  0  0  0
   28.4370   17.2300   14.7580 H   0  0  0  0  0  0  0  0  0  0  0  0
   30.5760   15.9020   13.9990 H   0  0  0  0  0  0  0  0  0  0  0  0
  1 20  1  0  0  0  0
  2  1  1  6  0  0  0
  2 15  1  0  0  0  0
  3  8  1  0  0  0  0
  3  2  1  0  0  0  0
  4  6  1  0  0  0  0
  5  4  2  0  0  0  0
  5  7  1  0  0  0  0
  6  9  1  0  0  0  0
  6  8  2  0  0  0  0
  7  3  2  0  0  0  0
  9 10  1  0  0  0  0
 10 12  1  0  0  0  0
 10 13  1  0  0  0  0
 11 14  1  0  0  0  0
 11  9  2  0  0  0  0
 15 16  1  0  0  0  0
 16 17  2  0  0  0  0
 16 18  1  0  0  0  0
 18 19  1  0  0  0  0
 21 23  1  0  0  0  0
 21 20  1  0  0  0  0
 22 21  2  0  0  0  0
 24 26  2  0  0  0  0
 24 22  1  0  0  0  0
 25 23  2  0  0  0  0
 26 25  1  0  0  0  0
 27 26  1  0  0  0  0
 28 27  1  0  0  0  0
 28 30  1  0  0  0  0
 29 27  2  0  0  0  0
 31 28  1  0  0  0  0
 32 29  1  0  0  0  0
M  END
>  <Pose>
3

>  <Score>
-7.182

$$$$
1AZ8_lig_vina_out.pdbqt
 OpenBabel04202311133D

 32 33  0  0  1  0  0  0  0  0999 V2000
   30.9260   10.6700   17.5310 C   0  0  0  0  0  2  0  0  0  0  0  0
   29.5140   11.0900   17.5730 C   0  0  2  0  0  3  0  0  0  0  0  0
   29.2930   12.5490   17.7380 C   0  0  0  0  0  0  0  0  0  0  0  0
   28.8770   15.2100   17.9500 C   0  0  0  0  0  3  0  0  0  0  0  0
   28.6720   14.4080   19.0490 C   0  0  0  0  0  3  0  0  0  0  0  0
   29.2910   14.7040   16.7310 C   0  0  0  0  0  0  0  0  0  0  0  0
   28.8810   13.0400   18.9560 C   0  0  0  0  0  3  0  0  0  0  0  0
   29.5020   13.3470   16.6250 C   0  0  0  0  0  3  0  0  0  0  0  0
   29.4910   15.6120   15.6010 C   0  0  0  0  0  0  0  0  0  0  0  0
   28.9240   16.9140   15.5660 N   0  0  0  0  0  0  0  0  0  0  0  0
   30.2020   15.2250   14.6060 N   0  0  0  0  0  0  0  0  0  0  0  0
   28.3780   17.2460   14.7460 H   0  0  0  0  0  0  0  0  0  0  0  0
   29.0860   17.5190   16.4130 H   0  0  0  0  0  0  0  0  0  0  0  0
   30.3480   15.8600   13.8020 H   0  0  0  0  0  0  0  0  0  0  0  0
   28.7750   10.4040   18.7280 C   0  0  0  0  0  2  0  0  0  0  0  0
   27.5650    9.6820   18.3120 C   0  0  0  0  0  0  0  0  0  0  0  0
   26.6970    9.2030   19.0650 O   0  0  0  0  0  0  0  0  0  0  0  0
   27.3250    9.4920   16.9360 O   0  0  0  0  0  0  0  0  0  0  0  0
   26.0210    9.3700   16.4350 C   0  0  0  0  0  1  0  0  0  0  0  0
   31.3410    9.5500   18.4070 C   0  0  0  0  0  2  0  0  0  0  0  0
   32.7520    9.5270   18.8150 C   0  0  0  0  0  0  0  0  0  0  0  0
   33.6310   10.5610   18.4570 C   0  0  0  0  0  3  0  0  0  0  0  0
   33.2910    8.5160   19.5660 C   0  0  0  0  0  3  0  0  0  0  0  0
   34.9530   10.5600   18.8370 C   0  0  0  0  0  3  0  0  0  0  0  0
   34.6420    8.5180   19.9530 C   0  0  0  0  0  3  0  0  0  0  0  0
   35.4910    9.5390   19.5940 C   0  0  0  0  0  0  0  0  0  0  0  0
   36.8950    9.5730   19.9760 C   0  0  0  0  0  0  0  0  0  0  0  0
   37.8180    8.8720   19.1660 N   0  0  0  0  0  0  0  0  0  0  0  0
   37.3280   10.2020   21.0010 N   0  0  0  0  0  0  0  0  0  0  0  0
   37.8720    9.0930   18.1360 H   0  0  0  0  0  0  0  0  0  0  0  0
   38.4440    8.1400   19.5680 H   0  0  0  0  0  0  0  0  0  0  0  0
   38.3420   10.1860   21.2170 H   0  0  0  0  0  0  0  0  0  0  0  0
  1 20  1  0  0  0  0
  2  1  1  1  0  0  0
  2  3  1  0  0  0  0
  2 15  1  0  0  0  0
  3  7  1  0  0  0  0
  4  5  1  0  0  0  0
  6  4  2  0  0  0  0
  7  5  2  0  0  0  0
  8  6  1  0  0  0  0
  8  3  2  0  0  0  0
  9  6  1  0  0  0  0
 10  9  1  0  0  0  0
 10 13  1  0  0  0  0
 11  9  2  0  0  0  0
 12 10  1  0  0  0  0
 14 11  1  0  0  0  0
 16 15  1  0  0  0  0
 16 17  2  0  0  0  0
 18 16  1  0  0  0  0
 19 18  1  0  0  0  0
 20 21  1  0  0  0  0
 21 23  1  0  0  0  0
 22 21  2  0  0  0  0
 22 24  1  0  0  0  0
 23 25  2  0  0  0  0
 24 26  2  0  0  0  0
 26 25  1  0  0  0  0
 26 27  1  0  0  0  0
 27 29  2  0  0  0  0
 28 31  1  0  0  0  0
 28 27  1  0  0  0  0
 29 32  1  0  0  0  0
 30 28  1  0  0  0  0
M  END
>  <Pose>
4

>  <Score>
-7.151

$$$$
1AZ8_lig_vina_out.pdbqt
 OpenBabel04202311133D

 32 33  0  0  1  0  0  0  0  0999 V2000
   28.6100   10.6610   19.2500 C   0  0  0  0  0  2  0  0  0  0  0  0
   27.3970   10.6940   18.4140 C   0  0  2  0  0  3  0  0  0  0  0  0
   26.1880   10.0900   19.0290 C   0  0  0  0  0  0  0  0  0  0  0  0
   23.9970    8.9220   20.0940 C   0  0  0  0  0  3  0  0  0  0  0  0
   24.6770    9.8680   20.8250 C   0  0  0  0  0  3  0  0  0  0  0  0
   24.3940    8.5420   18.8240 C   0  0  0  0  0  0  0  0  0  0  0  0
   25.8030   10.4770   20.2920 C   0  0  0  0  0  3  0  0  0  0  0  0
   25.5110    9.1380   18.2840 C   0  0  0  0  0  3  0  0  0  0  0  0
   23.6260    7.5290   18.1000 C   0  0  0  0  0  0  0  0  0  0  0  0
   24.1480    6.8490   16.9670 N   0  0  0  0  0  0  0  0  0  0  0  0
   22.4410    7.2400   18.4980 N   0  0  0  0  0  0  0  0  0  0  0  0
   23.6120    6.7860   16.0780 H   0  0  0  0  0  0  0  0  0  0  0  0
   25.1020    6.4170   17.0780 H   0  0  0  0  0  0  0  0  0  0  0  0
   21.8900    6.5250   17.9910 H   0  0  0  0  0  0  0  0  0  0  0  0
   27.6270    9.9560   17.0900 C   0  0  0  0  0  2  0  0  0  0  0  0
   28.9420    9.3080   16.9920 C   0  0  0  0  0  0  0  0  0  0  0  0
   29.2750    8.2330   17.5220 O   0  0  0  0  0  0  0  0  0  0  0  0
   29.9530    9.9320   16.2330 O   0  0  0  0  0  0  0  0  0  0  0  0
   31.2850    9.9490   16.6690 C   0  0  0  0  0  1  0  0  0  0  0  0
   29.1700   11.9540   19.7080 C   0  0  0  0  0  2  0  0  0  0  0  0
   29.0090   13.0950   18.7970 C   0  0  0  0  0  0  0  0  0  0  0  0
   28.2120   14.1970   19.1420 C   0  0  0  0  0  3  0  0  0  0  0  0
   29.6230   13.1600   17.5740 C   0  0  0  0  0  3  0  0  0  0  0  0
   28.0580   15.2780   18.3050 C   0  0  0  0  0  3  0  0  0  0  0  0
   29.4630   14.2650   16.7210 C   0  0  0  0  0  3  0  0  0  0  0  0
   28.6790   15.3380   17.0750 C   0  0  0  0  0  0  0  0  0  0  0  0
   28.4910   16.4980   16.2150 C   0  0  0  0  0  0  0  0  0  0  0  0
   27.3120   17.2610   16.3840 N   0  0  0  0  0  0  0  0  0  0  0  0
   29.3350   16.8570   15.3250 N   0  0  0  0  0  0  0  0  0  0  0  0
   27.0870   17.6600   17.3330 H   0  0  0  0  0  0  0  0  0  0  0  0
   26.6610   17.4340   15.5870 H   0  0  0  0  0  0  0  0  0  0  0  0
   29.1400   17.6940   14.7460 H   0  0  0  0  0  0  0  0  0  0  0  0
  1 20  1  0  0  0  0
  2 15  1  6  0  0  0
  2  3  1  0  0  0  0
  2  1  1  0  0  0  0
  3  7  1  0  0  0  0
  4  5  1  0  0  0  0
  6  4  2  0  0  0  0
  7  5  2  0  0  0  0
  8  6  1  0  0  0  0
  8  3  2  0  0  0  0
  9 11  2  0  0  0  0
  9  6  1  0  0  0  0
 10 13  1  0  0  0  0
 10  9  1  0  0  0  0
 12 10  1  0  0  0  0
 14 11  1  0  0  0  0
 16 15  1  0  0  0  0
 16 17  2  0  0  0  0
 18 19  1  0  0  0  0
 18 16  1  0  0  0  0
 21 22  1  0  0  0  0
 21 20  1  0  0  0  0
 23 21  2  0  0  0  0
 24 22  2  0  0  0  0
 25 26  2  0  0  0  0
 25 23  1  0  0  0  0
 26 24  1  0  0  0  0
 27 28  1  0  0  0  0
 27 26  1  0  0  0  0
 28 30  1  0  0  0  0
 29 27  2  0  0  0  0
 31 28  1  0  0  0  0
 32 29  1  0  0  0  0
M  END
>  <Pose>
5

>  <Score>
-6.970

$$$$
1AZ8_lig_vina_out.pdbqt
 OpenBabel04202311133D

 32 33  0  0  1  0  0  0  0  0999 V2000
   28.1330   11.1370   20.1050 C   0  0  0  0  0  2  0  0  0  0  0  0
   27.3180   10.7330   21.2650 C   0  0  2  0  0  3  0  0  0  0  0  0
   28.0880   10.3650   22.4810 C   0  0  0  0  0  0  0  0  0  0  0  0
   29.5400    9.6480   24.6430 C   0  0  0  0  0  3  0  0  0  0  0  0
   28.8040   10.8100   24.6830 C   0  0  0  0  0  3  0  0  0  0  0  0
   29.5660    8.8250   23.5300 C   0  0  0  0  0  0  0  0  0  0  0  0
   28.0530   11.1910   23.5820 C   0  0  0  0  0  3  0  0  0  0  0  0
   28.8250    9.1940   22.4290 C   0  0  0  0  0  3  0  0  0  0  0  0
   30.3710    7.6040   23.5530 C   0  0  0  0  0  0  0  0  0  0  0  0
   29.9270    6.3940   22.9560 N   0  0  0  0  0  0  0  0  0  0  0  0
   31.5170    7.6200   24.1300 N   0  0  0  0  0  0  0  0  0  0  0  0
   29.9390    5.4950   23.4800 H   0  0  0  0  0  0  0  0  0  0  0  0
   29.5880    6.4580   21.9620 H   0  0  0  0  0  0  0  0  0  0  0  0
   32.0930    6.7610   24.1510 H   0  0  0  0  0  0  0  0  0  0  0  0
   26.4440    9.5210   20.9210 C   0  0  0  0  0  2  0  0  0  0  0  0
   25.0310    9.8550   20.6940 C   0  0  0  0  0  0  0  0  0  0  0  0
   24.5970   10.8220   20.0420 O   0  0  0  0  0  0  0  0  0  0  0  0
   24.0370    9.0240   21.2510 O   0  0  0  0  0  0  0  0  0  0  0  0
   23.3150    8.1220   20.4580 C   0  0  0  0  0  1  0  0  0  0  0  0
   28.9670   12.3550   20.2370 C   0  0  0  0  0  2  0  0  0  0  0  0
   28.9370   13.2930   19.1080 C   0  0  0  0  0  0  0  0  0  0  0  0
   28.2110   14.4920   19.1750 C   0  0  0  0  0  3  0  0  0  0  0  0
   29.6120   13.0660   17.9370 C   0  0  0  0  0  3  0  0  0  0  0  0
   28.1790   15.3860   18.1290 C   0  0  0  0  0  3  0  0  0  0  0  0
   29.5770   13.9810   16.8710 C   0  0  0  0  0  3  0  0  0  0  0  0
   28.8610   15.1530   16.9530 C   0  0  0  0  0  0  0  0  0  0  0  0
   28.8020   16.1220   15.8680 C   0  0  0  0  0  0  0  0  0  0  0  0
   27.8410   17.1560   15.9570 N   0  0  0  0  0  0  0  0  0  0  0  0
   29.5730   16.0840   14.8500 N   0  0  0  0  0  0  0  0  0  0  0  0
   27.8340   17.7830   16.8040 H   0  0  0  0  0  0  0  0  0  0  0  0
   27.1380   17.3070   15.2000 H   0  0  0  0  0  0  0  0  0  0  0  0
   29.4800   16.8060   14.1120 H   0  0  0  0  0  0  0  0  0  0  0  0
  1 20  1  0  0  0  0
  2  1  1  6  0  0  0
  2  3  1  0  0  0  0
  3  7  1  0  0  0  0
  4  5  1  0  0  0  0
  6  9  1  0  0  0  0
  6  4  2  0  0  0  0
  7  5  2  0  0  0  0
  8  3  2  0  0  0  0
  8  6  1  0  0  0  0
  9 11  2  0  0  0  0
 10 12  1  0  0  0  0
 10  9  1  0  0  0  0
 11 14  1  0  0  0  0
 13 10  1  0  0  0  0
 15  2  1  0  0  0  0
 16 15  1  0  0  0  0
 16 18  1  0  0  0  0
 17 16  2  0  0  0  0
 19 18  1  0  0  0  0
 21 22  1  0  0  0  0
 21 20  1  0  0  0  0
 23 21  2  0  0  0  0
 24 22  2  0  0  0  0
 25 26  2  0  0  0  0
 25 23  1  0  0  0  0
 26 24  1  0  0  0  0
 27 28  1  0  0  0  0
 27 26  1  0  0  0  0
 28 30  1  0  0  0  0
 29 27  2  0  0  0  0
 31 28  1  0  0  0  0
 32 29  1  0  0  0  0
M  END
>  <Pose>
6

>  <Score>
-6.635

$$$$
1AZ8_lig_vina_out.pdbqt
 OpenBabel04202311133D

 32 33  0  0  1  0  0  0  0  0999 V2000
   25.8510    9.5380   16.5430 C   0  0  0  0  0  2  0  0  0  0  0  0
   26.2160    8.8590   17.7990 C   0  0  2  0  0  3  0  0  0  0  0  0
   25.1110    8.7000   18.7770 C   0  0  0  0  0  0  0  0  0  0  0  0
   23.0870    8.3280   20.5290 C   0  0  0  0  0  3  0  0  0  0  0  0
   24.0350    9.2910   20.7900 C   0  0  0  0  0  3  0  0  0  0  0  0
   23.1300    7.5370   19.3940 C   0  0  0  0  0  0  0  0  0  0  0  0
   25.0790    9.4940   19.9010 C   0  0  0  0  0  3  0  0  0  0  0  0
   24.1630    7.7280   18.5030 C   0  0  0  0  0  3  0  0  0  0  0  0
   22.0900    6.5300   19.1750 C   0  0  0  0  0  0  0  0  0  0  0  0
   21.9250    5.4130   20.0350 N   0  0  0  0  0  0  0  0  0  0  0  0
   21.2980    6.6580   18.1740 N   0  0  0  0  0  0  0  0  0  0  0  0
   21.8640    4.4440   19.6610 H   0  0  0  0  0  0  0  0  0  0  0  0
   21.8680    5.6190   21.0660 H   0  0  0  0  0  0  0  0  0  0  0  0
   20.5600    5.9510   18.0100 H   0  0  0  0  0  0  0  0  0  0  0  0
   27.3340    9.6190   18.5240 C   0  0  0  0  0  2  0  0  0  0  0  0
   28.4340   10.0370   17.6460 C   0  0  0  0  0  0  0  0  0  0  0  0
   29.1010    9.3000   16.8970 O   0  0  0  0  0  0  0  0  0  0  0  0
   28.8020   11.3980   17.6160 O   0  0  0  0  0  0  0  0  0  0  0  0
   27.9990   12.3810   18.2100 C   0  0  0  0  0  1  0  0  0  0  0  0
   25.6500    8.7010   15.3370 C   0  0  0  0  0  2  0  0  0  0  0  0
   24.2650    8.5480   14.8720 C   0  0  0  0  0  0  0  0  0  0  0  0
   23.1840    9.0240   15.6290 C   0  0  0  0  0  3  0  0  0  0  0  0
   23.9450    7.9470   13.6830 C   0  0  0  0  0  3  0  0  0  0  0  0
   21.8820    8.8970   15.2040 C   0  0  0  0  0  3  0  0  0  0  0  0
   22.6130    7.8180   13.2510 C   0  0  0  0  0  3  0  0  0  0  0  0
   21.5650    8.2910   14.0060 C   0  0  0  0  0  0  0  0  0  0  0  0
   20.1740    8.1740   13.5900 C   0  0  0  0  0  0  0  0  0  0  0  0
   19.5300    9.3350   13.1030 N   0  0  0  0  0  0  0  0  0  0  0  0
   19.5160    7.0800   13.6430 N   0  0  0  0  0  0  0  0  0  0  0  0
   19.9520    9.8570   12.2890 H   0  0  0  0  0  0  0  0  0  0  0  0
   18.6470    9.6840   13.5340 H   0  0  0  0  0  0  0  0  0  0  0  0
   18.5280    7.0650   13.3300 H   0  0  0  0  0  0  0  0  0  0  0  0
  2  1  1  6  0  0  0
  2 15  1  0  0  0  0
  2  3  1  0  0  0  0
  3  7  1  0  0  0  0
  4  5  1  0  0  0  0
  6  4  2  0  0  0  0
  7  5  2  0  0  0  0
  8  3  2  0  0  0  0
  8  6  1  0  0  0  0
  9  6  1  0  0  0  0
  9 10  1  0  0  0  0
 10 13  1  0  0  0  0
 11  9  2  0  0  0  0
 12 10  1  0  0  0  0
 14 11  1  0  0  0  0
 16 15  1  0  0  0  0
 17 16  2  0  0  0  0
 18 16  1  0  0  0  0
 18 19  1  0  0  0  0
 20  1  1  0  0  0  0
 21 20  1  0  0  0  0
 21 22  1  0  0  0  0
 23 21  2  0  0  0  0
 24 22  2  0  0  0  0
 25 23  1  0  0  0  0
 25 26  2  0  0  0  0
 26 24  1  0  0  0  0
 27 29  2  0  0  0  0
 27 26  1  0  0  0  0
 28 31  1  0  0  0  0
 28 27  1  0  0  0  0
 30 28  1  0  0  0  0
 32 29  1  0  0  0  0
M  END
>  <Pose>
7

>  <Score>
-6.631

$$$$
1AZ8_lig_vina_out.pdbqt
 OpenBabel04202311133D

 32 33  0  0  1  0  0  0  0  0999 V2000
   31.5430   10.9150   18.1170 C   0  0  0  0  0  3  0  0  0  0  0  0
   32.2840    9.8430   18.8060 C   0  0  2  0  0  3  0  0  0  0  0  0
   33.5880    9.4810   18.1940 C   0  0  0  0  0  0  0  0  0  0  0  0
   35.9930    8.8110   17.1610 C   0  0  0  0  0  3  0  0  0  0  0  0
   34.8660    8.6750   16.3840 C   0  0  0  0  0  3  0  0  0  0  0  0
   35.9430    9.2820   18.4620 C   0  0  0  0  0  0  0  0  0  0  0  0
   33.6240    9.0150   16.8990 C   0  0  0  0  0  3  0  0  0  0  0  0
   34.7160    9.6220   18.9860 C   0  0  0  0  0  3  0  0  0  0  0  0
   37.1790    9.4030   19.2350 C   0  0  0  0  0  0  0  0  0  0  0  0
   37.2300    9.1400   20.6290 N   0  0  0  0  0  0  0  0  0  0  0  0
   38.2580    9.7570   18.6370 N   0  0  0  0  0  0  0  0  0  0  0  0
   37.6530    9.8180   21.2940 H   0  0  0  0  0  0  0  0  0  0  0  0
   36.8160    8.2260   20.9500 H   0  0  0  0  0  0  0  0  0  0  0  0
   39.1380    9.8450   19.1760 H   0  0  0  0  0  0  0  0  0  0  0  0
   31.4560    8.5540   18.8590 C   0  0  0  0  0  2  0  0  0  0  0  0
   31.8920    7.6110   19.8980 C   0  0  0  0  0  0  0  0  0  0  0  0
   31.9940    7.8510   21.1150 O   0  0  0  0  0  0  0  0  0  0  0  0
   32.2360    6.2960   19.5240 O   0  0  0  0  0  0  0  0  0  0  0  0
   33.5640    5.9440   19.2450 C   0  0  0  0  0  1  0  0  0  0  0  0
   30.2810   11.3880   18.7320 C   0  0  0  0  0  3  0  0  0  0  0  0
   29.7420   12.6560   18.2230 C   0  0  0  0  0  0  0  0  0  0  0  0
   29.9110   13.0340   16.8820 C   0  0  0  0  0  3  0  0  0  0  0  0
   29.0430   13.5340   19.0090 C   0  0  0  0  0  3  0  0  0  0  0  0
   29.4050   14.2140   16.3870 C   0  0  0  0  0  3  0  0  0  0  0  0
   28.5280   14.7380   18.5000 C   0  0  0  0  0  3  0  0  0  0  0  0
   28.7010   15.0940   17.1830 C   0  0  0  0  0  0  0  0  0  0  0  0
   28.1820   16.3330   16.6220 C   0  0  0  0  0  0  0  0  0  0  0  0
   28.9170   16.9480   15.5820 N   0  0  0  0  0  0  0  0  0  0  0  0
   27.1010   16.8860   17.0230 N   0  0  0  0  0  0  0  0  0  0  0  0
   29.1380   16.3960   14.7110 H   0  0  0  0  0  0  0  0  0  0  0  0
   29.2460   17.9350   15.6620 H   0  0  0  0  0  0  0  0  0  0  0  0
   26.7870   17.7690   16.5800 H   0  0  0  0  0  0  0  0  0  0  0  0
  1 20  2  0  0  0  0
  2  1  1  6  0  0  0
  2 15  1  0  0  0  0
  3  2  1  0  0  0  0
  3  8  1  0  0  0  0
  4  6  1  0  0  0  0
  5  7  1  0  0  0  0
  5  4  2  0  0  0  0
  6  8  2  0  0  0  0
  6  9  1  0  0  0  0
  7  3  2  0  0  0  0
  9 10  1  0  0  0  0
 10 13  1  0  0  0  0
 10 12  1  0  0  0  0
 11 14  1  0  0  0  0
 11  9  2  0  0  0  0
 15 16  1  0  0  0  0
 16 17  2  0  0  0  0
 18 16  1  0  0  0  0
 19 18  1  0  0  0  0
 21 20  1  0  0  0  0
 21 23  1  0  0  0  0
 22 21  2  0  0  0  0
 24 22  1  0  0  0  0
 24 26  2  0  0  0  0
 25 23  2  0  0  0  0
 26 25  1  0  0  0  0
 27 29  2  0  0  0  0
 27 26  1  0  0  0  0
 28 31  1  0  0  0  0
 28 27  1  0  0  0  0
 30 28  1  0  0  0  0
 32 29  1  0  0  0  0
M  END
>  <Pose>
8

>  <Score>
-6.618

$$$$
1AZ8_lig_vina_out.pdbqt
 OpenBabel04202311133D

 32 33  0  0  1  0  0  0  0  0999 V2000
   27.7500   11.5100   20.3720 C   0  0  0  0  0  2  0  0  0  0  0  0
   28.1670   10.1030   20.5060 C   0  0  2  0  0  3  0  0  0  0  0  0
   28.0280    9.2820   19.2760 C   0  0  0  0  0  0  0  0  0  0  0  0
   27.8560    7.8150   17.0130 C   0  0  0  0  0  3  0  0  0  0  0  0
   27.0730    7.4800   18.0940 C   0  0  0  0  0  3  0  0  0  0  0  0
   28.7350    8.8840   17.0400 C   0  0  0  0  0  0  0  0  0  0  0  0
   27.1490    8.2230   19.2620 C   0  0  0  0  0  3  0  0  0  0  0  0
   28.8210    9.6290   18.1940 C   0  0  0  0  0  3  0  0  0  0  0  0
   29.5400    9.1870   15.8560 C   0  0  0  0  0  0  0  0  0  0  0  0
   30.3790   10.3310   15.7830 N   0  0  0  0  0  0  0  0  0  0  0  0
   29.4900    8.3960   14.8470 N   0  0  0  0  0  0  0  0  0  0  0  0
   30.3350   10.9850   14.9760 H   0  0  0  0  0  0  0  0  0  0  0  0
   31.0420   10.4780   16.5880 H   0  0  0  0  0  0  0  0  0  0  0  0
   30.0550    8.6030   14.0050 H   0  0  0  0  0  0  0  0  0  0  0  0
   27.3550    9.3930   21.5960 C   0  0  0  0  0  2  0  0  0  0  0  0
   28.0220    9.3580   22.9040 C   0  0  0  0  0  0  0  0  0  0  0  0
   29.1620    8.9170   23.1390 O   0  0  0  0  0  0  0  0  0  0  0  0
   27.3400    9.8640   24.0300 O   0  0  0  0  0  0  0  0  0  0  0  0
   26.3060    9.1400   24.6400 C   0  0  0  0  0  1  0  0  0  0  0  0
   28.8070   12.5480   20.3780 C   0  0  0  0  0  2  0  0  0  0  0  0
   28.9260   13.3650   19.1640 C   0  0  0  0  0  0  0  0  0  0  0  0
   29.7460   12.9700   18.0960 C   0  0  0  0  0  3  0  0  0  0  0  0
   28.2480   14.5440   18.9940 C   0  0  0  0  0  3  0  0  0  0  0  0
   29.8620   13.7190   16.9480 C   0  0  0  0  0  3  0  0  0  0  0  0
   28.3700   15.3070   17.8200 C   0  0  0  0  0  3  0  0  0  0  0  0
   29.1780   14.9050   16.7820 C   0  0  0  0  0  0  0  0  0  0  0  0
   29.3270   15.6710   15.5520 C   0  0  0  0  0  0  0  0  0  0  0  0
   28.6070   16.8830   15.4370 N   0  0  0  0  0  0  0  0  0  0  0  0
   30.0730   15.3020   14.5830 N   0  0  0  0  0  0  0  0  0  0  0  0
   28.7340   17.6300   16.1700 H   0  0  0  0  0  0  0  0  0  0  0  0
   27.9540   17.0500   14.6410 H   0  0  0  0  0  0  0  0  0  0  0  0
   30.1360   15.8950   13.7340 H   0  0  0  0  0  0  0  0  0  0  0  0
  1 20  1  0  0  0  0
  2  1  1  6  0  0  0
  2 15  1  0  0  0  0
  3  2  1  0  0  0  0
  4  6  2  0  0  0  0
  4  5  1  0  0  0  0
  5  7  2  0  0  0  0
  6  8  1  0  0  0  0
  7  3  1  0  0  0  0
  8  3  2  0  0  0  0
  9  6  1  0  0  0  0
 10  9  1  0  0  0  0
 10 13  1  0  0  0  0
 11  9  2  0  0  0  0
 12 10  1  0  0  0  0
 14 11  1  0  0  0  0
 15 16  1  0  0  0  0
 16 17  2  0  0  0  0
 16 18  1  0  0  0  0
 18 19  1  0  0  0  0
 21 20  1  0  0  0  0
 22 21  2  0  0  0  0
 23 21  1  0  0  0  0
 24 22  1  0  0  0  0
 25 23  2  0  0  0  0
 26 24  2  0  0  0  0
 26 25  1  0  0  0  0
 27 26  1  0  0  0  0
 28 27  1  0  0  0  0
 28 30  1  0  0  0  0
 29 27  2  0  0  0  0
 31 28  1  0  0  0  0
 32 29  1  0  0  0  0
M  END
>  <Pose>
9

>  <Score>
-6.585

$$$$
1AZ8_lig_vina_out.pdbqt
 OpenBabel04202311133D

 32 33  0  0  1  0  0  0  0  0999 V2000
   28.5260   10.6610   18.5570 C   0  0  0  0  0  2  0  0  0  0  0  0
   29.6480   11.5670   18.2540 C   0  0  2  0  0  3  0  0  0  0  0  0
   29.2970   13.0080   18.1850 C   0  0  0  0  0  0  0  0  0  0  0  0
   28.6520   15.6240   17.9720 C   0  0  0  0  0  3  0  0  0  0  0  0
   28.4350   14.9720   19.1650 C   0  0  0  0  0  3  0  0  0  0  0  0
   29.1930   14.9870   16.8690 C   0  0  0  0  0  0  0  0  0  0  0  0
   28.7610   13.6300   19.2900 C   0  0  0  0  0  3  0  0  0  0  0  0
   29.5200   13.6540   16.9800 C   0  0  0  0  0  3  0  0  0  0  0  0
   29.3980   15.7370   15.6300 C   0  0  0  0  0  0  0  0  0  0  0  0
   30.0840   15.1870   14.5150 N   0  0  0  0  0  0  0  0  0  0  0  0
   28.9450   16.9350   15.5420 N   0  0  0  0  0  0  0  0  0  0  0  0
   30.8610   15.6970   14.0500 H   0  0  0  0  0  0  0  0  0  0  0  0
   29.7630   14.2380   14.1900 H   0  0  0  0  0  0  0  0  0  0  0  0
   29.0860   17.4740   14.6700 H   0  0  0  0  0  0  0  0  0  0  0  0
   30.2900   11.2110   16.9080 C   0  0  0  0  0  2  0  0  0  0  0  0
   31.2630   10.1140   16.9860 C   0  0  0  0  0  0  0  0  0  0  0  0
   31.0450    8.9630   17.4080 O   0  0  0  0  0  0  0  0  0  0  0  0
   32.5850   10.3430   16.5520 O   0  0  0  0  0  0  0  0  0  0  0  0
   33.6700    9.6780   17.1400 C   0  0  0  0  0  1  0  0  0  0  0  0
   27.2490   10.8770   17.8360 C   0  0  0  0  0  2  0  0  0  0  0  0
   26.7920    9.7800   16.9740 C   0  0  0  0  0  0  0  0  0  0  0  0
   25.5240    9.8040   16.3730 C   0  0  0  0  0  3  0  0  0  0  0  0
   27.5650    8.6830   16.6970 C   0  0  0  0  0  3  0  0  0  0  0  0
   25.0840    8.7890   15.5550 C   0  0  0  0  0  3  0  0  0  0  0  0
   27.1120    7.6470   15.8620 C   0  0  0  0  0  3  0  0  0  0  0  0
   25.8660    7.6870   15.2800 C   0  0  0  0  0  0  0  0  0  0  0  0
   25.3650    6.6320   14.4100 C   0  0  0  0  0  0  0  0  0  0  0  0
   25.0430    5.3880   14.9990 N   0  0  0  0  0  0  0  0  0  0  0  0
   25.2030    6.7790   13.1510 N   0  0  0  0  0  0  0  0  0  0  0  0
   24.3500    5.3560   15.7930 H   0  0  0  0  0  0  0  0  0  0  0  0
   25.4790    4.5010   14.6630 H   0  0  0  0  0  0  0  0  0  0  0  0
   24.8410    5.9870   12.5880 H   0  0  0  0  0  0  0  0  0  0  0  0
  2 15  1  6  0  0  0
  2  1  1  0  0  0  0
  3  2  1  0  0  0  0
  3  7  1  0  0  0  0
  4  5  1  0  0  0  0
  5  7  2  0  0  0  0
  6  8  1  0  0  0  0
  6  4  2  0  0  0  0
  8  3  2  0  0  0  0
  9  6  1  0  0  0  0
 10  9  1  0  0  0  0
 11  9  2  0  0  0  0
 12 10  1  0  0  0  0
 13 10  1  0  0  0  0
 14 11  1  0  0  0  0
 15 16  1  0  0  0  0
 16 17  2  0  0  0  0
 18 16  1  0  0  0  0
 18 19  1  0  0  0  0
 20  1  1  0  0  0  0
 21 20  1  0  0  0  0
 22 21  2  0  0  0  0
 23 21  1  0  0  0  0
 24 22  1  0  0  0  0
 25 23  2  0  0  0  0
 26 24  2  0  0  0  0
 26 25  1  0  0  0  0
 27 28  1  0  0  0  0
 27 26  1  0  0  0  0
 28 30  1  0  0  0  0
 29 27  2  0  0  0  0
 31 28  1  0  0  0  0
 32 29  1  0  0  0  0
M  END
>  <Pose>
10

>  <Score>
-6.525

$$$$
