MODEL 1
REMARK VINA RESULT:    -7.440      0.000      0.000
REMARK INTER + INTRA:         -11.609
REMARK INTER:                 -10.485
REMARK INTRA:                  -1.124
REMARK UNBOUND:                -1.124
REMARK SMILES Cc1ccc(NC(=O)c2ccc(CN3CC[NH+](C)CC3)cc2)cc1Nc1nccc(-c2cccnc2)n1
REMARK SMILES IDX 24 1 2 2 3 3 4 4 5 5 23 6 1 7 25 8 26 10 30 11 29 12 37 13
REMARK SMILES IDX 28 14 27 15 31 16 33 17 32 18 34 19 35 20 36 21 6 22 7 23
REMARK SMILES IDX 8 25 9 26 10 27 22 28 11 29 21 30 12 31 13 32 14 33 15 34
REMARK SMILES IDX 20 35 16 36 19 37 17 38 18 39
REMARK H PARENT 25 9 6 24 17 40
REMARK Flexibility Score: inf
ROOT
ATOM      1  C   UNL     1     -47.819  12.105 -31.879  1.00  0.00     0.046 A 
ATOM      2  C   UNL     1     -49.255  12.020 -32.167  1.00  0.00    -0.027 A 
ATOM      3  C   UNL     1     -49.798  10.745 -32.540  1.00  0.00     0.008 A 
ATOM      4  C   UNL     1     -48.950   9.582 -32.624  1.00  0.00     0.026 A 
ATOM      5  C   UNL     1     -47.555   9.660 -32.341  1.00  0.00     0.043 A 
ATOM      6  C   UNL     1     -46.999  10.951 -31.966  1.00  0.00     0.052 A 
ATOM      7  C   UNL     1     -50.212  13.233 -32.086  1.00  0.00     0.046 C 
ENDROOT
BRANCH   1   8
ATOM      8  N   UNL     1     -47.232  13.319 -31.514  1.00  0.00    -0.324 N 
ATOM      9  H   UNL     1     -47.616  13.853 -30.721  1.00  0.00     0.170 HD
BRANCH   8  10
ATOM     10  C   UNL     1     -46.139  13.814 -32.207  1.00  0.00     0.227 A 
ATOM     11  C   UNL     1     -45.327  14.900 -34.166  1.00  0.00     0.077 A 
ATOM     12  C   UNL     1     -43.979  14.824 -33.679  1.00  0.00     0.049 A 
ATOM     13  N   UNL     1     -46.357  14.392 -33.407  1.00  0.00    -0.213 NA
ATOM     14  C   UNL     1     -43.778  14.215 -32.420  1.00  0.00     0.117 A 
ATOM     15  N   UNL     1     -44.852  13.723 -31.710  1.00  0.00    -0.221 NA
BRANCH  11  16
ATOM     16  C   UNL     1     -45.700  15.512 -35.481  1.00  0.00     0.019 A 
ATOM     17  C   UNL     1     -45.183  16.212 -37.848  1.00  0.00     0.021 A 
ATOM     18  C   UNL     1     -44.771  15.613 -36.599  1.00  0.00     0.013 A 
ATOM     19  C   UNL     1     -46.530  16.707 -37.957  1.00  0.00     0.111 A 
ATOM     20  N   UNL     1     -47.415  16.602 -36.874  1.00  0.00    -0.264 NA
ATOM     21  C   UNL     1     -47.048  16.029 -35.660  1.00  0.00     0.121 A 
ENDBRANCH  11  16
ENDBRANCH   8  10
ENDBRANCH   1   8
BRANCH   5  22
ATOM     22  N   UNL     1     -46.775   8.452 -32.438  1.00  0.00    -0.322 N 
ATOM     23  C   UNL     1     -46.632   7.452 -31.490  1.00  0.00     0.255 C 
ATOM     24  H   UNL     1     -46.260   8.316 -33.320  1.00  0.00     0.170 HD
ATOM     25  O   UNL     1     -46.986   7.548 -30.325  1.00  0.00    -0.269 OA
BRANCH  23  26
ATOM     26  C   UNL     1     -45.989   6.163 -31.892  1.00  0.00     0.040 A 
ATOM     27  C   UNL     1     -46.723   5.154 -32.658  1.00  0.00     0.014 A 
ATOM     28  C   UNL     1     -44.618   5.912 -31.500  1.00  0.00     0.014 A 
ATOM     29  C   UNL     1     -46.085   3.912 -33.018  1.00  0.00     0.006 A 
ATOM     30  C   UNL     1     -43.995   4.695 -31.855  1.00  0.00     0.006 A 
ATOM     31  C   UNL     1     -44.702   3.674 -32.611  1.00  0.00    -0.034 A 
BRANCH  31  32
ATOM     32  C   UNL     1     -43.949   2.370 -32.932  1.00  0.00     0.120 C 
BRANCH  32  33
ATOM     33  N   UNL     1     -42.484   2.337 -32.641  1.00  0.00    -0.288 NA
ATOM     34  C   UNL     1     -42.180   1.323 -31.566  1.00  0.00     0.146 C 
ATOM     35  C   UNL     1     -41.656   2.039 -33.894  1.00  0.00     0.146 C 
ATOM     36  C   UNL     1     -40.662   1.287 -31.233  1.00  0.00     0.277 C 
ATOM     37  C   UNL     1     -40.126   2.030 -33.576  1.00  0.00     0.277 C 
ATOM     38  N   UNL     1     -39.841   1.000 -32.481  1.00  0.00    -0.335 N 
ATOM     39  C   UNL     1     -38.395   0.948 -32.221  1.00  0.00     0.332 C 
ATOM     40  H   UNL     1     -40.132   0.065 -32.801  1.00  0.00     0.347 HD
ENDBRANCH  32  33
ENDBRANCH  31  32
ENDBRANCH  23  26
ENDBRANCH   5  22
TORSDOF 7
ENDMDL
