REMARK SMILES Cc1ccc(NC(=O)c2ccc(CN3CCN(C)CC3)cc2)cc1Nc1nccc(-c2cccnc2)n1
REMARK SMILES IDX 24 1 2 2 3 3 4 4 5 5 23 6 1 7 25 8 26 10 30 11 29 12 37 13
REMARK SMILES IDX 28 14 27 15 31 16 33 17 32 18 34 19 35 20 36 21 6 22 7 23
REMARK SMILES IDX 8 25 9 26 10 27 22 28 11 29 21 30 12 31 13 32 14 33 15 34
REMARK SMILES IDX 20 35 16 36 19 37 17 38 18 39
REMARK H PARENT 25 9 6 24
REMARK Flexibility Score: inf
ROOT
ATOM      1  C   UNL     1     -40.594  15.281 -32.847  1.00  0.00     0.046 A 
ATOM      2  C   UNL     1     -40.539  15.179 -31.466  1.00  0.00    -0.027 A 
ATOM      3  C   UNL     1     -41.558  14.620 -30.730  1.00  0.00     0.008 A 
ATOM      4  C   UNL     1     -42.676  14.144 -31.383  1.00  0.00     0.026 A 
ATOM      5  C   UNL     1     -42.769  14.230 -32.777  1.00  0.00     0.043 A 
ATOM      6  C   UNL     1     -41.727  14.794 -33.461  1.00  0.00     0.052 A 
ATOM      7  C   UNL     1     -39.343  15.684 -30.766  1.00  0.00     0.046 C 
ENDROOT
BRANCH   1   8
ATOM      8  N   UNL     1     -39.511  15.876 -33.525  1.00  0.00    -0.324 N 
ATOM      9  H   UNL     1     -38.722  16.300 -32.990  1.00  0.00     0.170 HD
BRANCH   8  10
ATOM     10  C   UNL     1     -39.397  15.951 -34.950  1.00  0.00     0.227 A 
ATOM     11  C   UNL     1     -38.404  15.043 -36.926  1.00  0.00     0.077 A 
ATOM     12  C   UNL     1     -39.057  15.969 -37.694  1.00  0.00     0.049 A 
ATOM     13  N   UNL     1     -38.611  15.088 -35.612  1.00  0.00    -0.213 NA
ATOM     14  C   UNL     1     -39.871  16.869 -37.047  1.00  0.00     0.117 A 
ATOM     15  N   UNL     1     -40.044  16.868 -35.700  1.00  0.00    -0.221 NA
BRANCH  11  16
ATOM     16  C   UNL     1     -37.502  14.048 -37.506  1.00  0.00     0.019 A 
ATOM     17  C   UNL     1     -36.384  12.995 -39.320  1.00  0.00     0.021 A 
ATOM     18  C   UNL     1     -37.253  13.948 -38.841  1.00  0.00     0.013 A 
ATOM     19  C   UNL     1     -35.732  12.105 -38.473  1.00  0.00     0.111 A 
ATOM     20  N   UNL     1     -35.997  12.226 -37.161  1.00  0.00    -0.264 NA
ATOM     21  C   UNL     1     -36.845  13.155 -36.686  1.00  0.00     0.121 A 
ENDBRANCH  11  16
ENDBRANCH   8  10
ENDBRANCH   1   8
BRANCH   5  22
ATOM     22  N   UNL     1     -43.948  13.723 -33.391  1.00  0.00    -0.322 N 
ATOM     23  C   UNL     1     -45.052  14.631 -33.512  1.00  0.00     0.255 C 
ATOM     24  H   UNL     1     -44.032  12.752 -33.739  1.00  0.00     0.170 HD
ATOM     25  O   UNL     1     -44.924  15.817 -33.074  1.00  0.00    -0.269 OA
BRANCH  23  26
ATOM     26  C   UNL     1     -46.301  14.249 -34.107  1.00  0.00     0.040 A 
ATOM     27  C   UNL     1     -47.367  15.145 -34.036  1.00  0.00     0.014 A 
ATOM     28  C   UNL     1     -46.443  13.023 -34.739  1.00  0.00     0.014 A 
ATOM     29  C   UNL     1     -48.575  14.808 -34.598  1.00  0.00     0.006 A 
ATOM     30  C   UNL     1     -47.656  12.706 -35.293  1.00  0.00     0.006 A 
ATOM     31  C   UNL     1     -48.719  13.604 -35.219  1.00  0.00    -0.034 A 
BRANCH  31  32
ATOM     32  C   UNL     1     -49.986  13.208 -35.826  1.00  0.00     0.120 C 
BRANCH  32  33
ATOM     33  N   UNL     1     -50.116  13.614 -37.201  1.00  0.00    -0.297 NA
ATOM     34  C   UNL     1     -50.083  15.024 -37.405  1.00  0.00     0.100 C 
ATOM     35  C   UNL     1     -51.293  12.980 -37.752  1.00  0.00     0.100 C 
ATOM     36  C   UNL     1     -51.372  15.595 -36.864  1.00  0.00     0.099 C 
ATOM     37  C   UNL     1     -52.244  13.946 -38.393  1.00  0.00     0.099 C 
ATOM     38  N   UNL     1     -52.488  15.129 -37.629  1.00  0.00    -0.304 NA
ATOM     39  C   UNL     1     -53.697  15.008 -36.812  1.00  0.00     0.105 C 
ENDBRANCH  32  33
ENDBRANCH  31  32
ENDBRANCH  23  26
ENDBRANCH   5  22
TORSDOF 7
