REMARK SMILES Cc1ccc(NC(=O)c2ccc(CN3CC[NH+](C)CC3)cc2)cc1Nc1nccc(-c2cccnc2)n1
REMARK SMILES IDX 24 1 2 2 3 3 4 4 5 5 23 6 1 7 25 8 26 10 30 11 29 12 37 13
REMARK SMILES IDX 28 14 27 15 31 16 33 17 32 18 34 19 35 20 36 21 6 22 7 23
REMARK SMILES IDX 8 25 9 26 10 27 22 28 11 29 21 30 12 31 13 32 14 33 15 34
REMARK SMILES IDX 20 35 16 36 19 37 17 38 18 39
REMARK H PARENT 25 9 6 24 17 40
REMARK Flexibility Score: inf
ROOT
ATOM      1  C   UNL     1     -25.384   6.545 -47.616  1.00  0.00     0.046 A 
ATOM      2  C   UNL     1     -25.375   5.806 -48.824  1.00  0.00    -0.027 A 
ATOM      3  C   UNL     1     -26.533   5.589 -49.491  1.00  0.00     0.008 A 
ATOM      4  C   UNL     1     -27.731   6.092 -48.989  1.00  0.00     0.026 A 
ATOM      5  C   UNL     1     -27.764   6.805 -47.827  1.00  0.00     0.043 A 
ATOM      6  C   UNL     1     -26.573   7.035 -47.131  1.00  0.00     0.052 A 
ATOM      7  C   UNL     1     -24.072   5.281 -49.336  1.00  0.00     0.046 C 
ENDROOT
BRANCH   1   8
ATOM      8  N   UNL     1     -24.143   6.730 -46.981  1.00  0.00    -0.324 N 
ATOM      9  H   UNL     1     -23.250   6.324 -47.407  1.00  0.00     0.170 HD
BRANCH   8  10
ATOM     10  C   UNL     1     -23.950   7.436 -45.772  1.00  0.00     0.227 A 
ATOM     11  C   UNL     1     -22.373   8.177 -44.150  1.00  0.00     0.077 A 
ATOM     12  C   UNL     1     -23.373   8.783 -43.418  1.00  0.00     0.049 A 
ATOM     13  N   UNL     1     -22.674   7.535 -45.279  1.00  0.00    -0.213 NA
ATOM     14  C   UNL     1     -24.655   8.686 -43.911  1.00  0.00     0.117 A 
ATOM     15  N   UNL     1     -24.884   8.031 -45.042  1.00  0.00    -0.221 NA
BRANCH  11  16
ATOM     16  C   UNL     1     -20.977   8.206 -43.741  1.00  0.00     0.019 A 
ATOM     17  C   UNL     1     -18.680   7.588 -44.161  1.00  0.00     0.021 A 
ATOM     18  C   UNL     1     -20.026   7.585 -44.512  1.00  0.00     0.013 A 
ATOM     19  C   UNL     1     -18.326   8.242 -43.002  1.00  0.00     0.111 A 
ATOM     20  N   UNL     1     -19.261   8.854 -42.240  1.00  0.00    -0.264 NA
ATOM     21  C   UNL     1     -20.584   8.844 -42.597  1.00  0.00     0.121 A 
ENDBRANCH  11  16
ENDBRANCH   8  10
ENDBRANCH   1   8
BRANCH   5  22
ATOM     22  N   UNL     1     -28.959   7.328 -47.293  1.00  0.00    -0.322 N 
ATOM     23  C   UNL     1     -29.774   6.594 -46.393  1.00  0.00     0.255 C 
ATOM     24  H   UNL     1     -29.301   8.298 -47.544  1.00  0.00     0.170 HD
ATOM     25  O   UNL     1     -29.409   5.424 -46.061  1.00  0.00    -0.269 OA
BRANCH  23  26
ATOM     26  C   UNL     1     -31.010   7.110 -45.829  1.00  0.00     0.040 A 
ATOM     27  C   UNL     1     -31.530   8.358 -46.078  1.00  0.00     0.014 A 
ATOM     28  C   UNL     1     -31.768   6.318 -44.964  1.00  0.00     0.014 A 
ATOM     29  C   UNL     1     -32.716   8.789 -45.509  1.00  0.00     0.006 A 
ATOM     30  C   UNL     1     -32.945   6.723 -44.390  1.00  0.00     0.006 A 
ATOM     31  C   UNL     1     -33.434   7.981 -44.662  1.00  0.00    -0.034 A 
BRANCH  31  32
ATOM     32  C   UNL     1     -34.707   8.440 -44.044  1.00  0.00     0.120 C 
BRANCH  32  33
ATOM     33  N   UNL     1     -35.871   8.174 -44.821  1.00  0.00    -0.288 NA
ATOM     34  C   UNL     1     -37.036   8.649 -44.142  1.00  0.00     0.146 C 
ATOM     35  C   UNL     1     -36.022   6.848 -45.314  1.00  0.00     0.146 C 
ATOM     36  C   UNL     1     -38.325   8.040 -44.611  1.00  0.00     0.277 C 
ATOM     37  C   UNL     1     -36.965   6.067 -44.423  1.00  0.00     0.277 C 
ATOM     38  N   UNL     1     -38.292   6.600 -44.656  1.00  0.00    -0.335 N 
ATOM     39  C   UNL     1     -39.294   5.999 -43.796  1.00  0.00     0.332 C 
ATOM     40  H   UNL     1     -38.543   6.327 -45.642  1.00  0.00     0.347 HD
ENDBRANCH  32  33
ENDBRANCH  31  32
ENDBRANCH  23  26
ENDBRANCH   5  22
TORSDOF 7
