REMARK SMILES Cc1ccc(NC(=O)c2ccc(CN3CC[NH+](C)CC3)cc2)cc1Nc1nccc(-c2cccnc2)n1
REMARK SMILES IDX 24 1 2 2 3 3 4 4 5 5 23 6 1 7 25 8 26 10 30 11 29 12 37 13
REMARK SMILES IDX 28 14 27 15 31 16 33 17 32 18 34 19 35 20 36 21 6 22 7 23
REMARK SMILES IDX 8 25 9 26 10 27 22 28 11 29 21 30 12 31 13 32 14 33 15 34
REMARK SMILES IDX 20 35 16 36 19 37 17 38 18 39
REMARK H PARENT 25 9 6 24 17 40
REMARK Flexibility Score: inf
ROOT
ATOM      1  C   UNL     1     -45.755  16.485 -32.046  1.00  0.00     0.046 A 
ATOM      2  C   UNL     1     -44.905  15.585 -32.706  1.00  0.00    -0.027 A 
ATOM      3  C   UNL     1     -45.248  15.004 -33.903  1.00  0.00     0.008 A 
ATOM      4  C   UNL     1     -46.492  15.326 -34.480  1.00  0.00     0.026 A 
ATOM      5  C   UNL     1     -47.352  16.194 -33.878  1.00  0.00     0.043 A 
ATOM      6  C   UNL     1     -46.941  16.755 -32.652  1.00  0.00     0.052 A 
ATOM      7  C   UNL     1     -43.603  15.253 -32.099  1.00  0.00     0.046 C 
ENDROOT
BRANCH   1   8
ATOM      8  N   UNL     1     -45.291  17.014 -30.835  1.00  0.00    -0.324 N 
ATOM      9  H   UNL     1     -44.617  16.449 -30.242  1.00  0.00     0.170 HD
BRANCH   8  10
ATOM     10  C   UNL     1     -45.654  18.265 -30.323  1.00  0.00     0.227 A 
ATOM     11  C   UNL     1     -45.713  20.615 -30.744  1.00  0.00     0.077 A 
ATOM     12  C   UNL     1     -46.290  20.839 -29.527  1.00  0.00     0.049 A 
ATOM     13  N   UNL     1     -45.414  19.366 -31.109  1.00  0.00    -0.213 NA
ATOM     14  C   UNL     1     -46.550  19.746 -28.700  1.00  0.00     0.117 A 
ATOM     15  N   UNL     1     -46.218  18.537 -29.147  1.00  0.00    -0.221 NA
BRANCH  11  16
ATOM     16  C   UNL     1     -45.402  21.703 -31.686  1.00  0.00     0.019 A 
ATOM     17  C   UNL     1     -44.992  23.956 -32.272  1.00  0.00     0.021 A 
ATOM     18  C   UNL     1     -45.287  23.003 -31.295  1.00  0.00     0.013 A 
ATOM     19  C   UNL     1     -44.818  23.629 -33.595  1.00  0.00     0.111 A 
ATOM     20  N   UNL     1     -44.936  22.347 -33.955  1.00  0.00    -0.264 NA
ATOM     21  C   UNL     1     -45.220  21.417 -33.029  1.00  0.00     0.121 A 
ENDBRANCH  11  16
ENDBRANCH   8  10
ENDBRANCH   1   8
BRANCH   5  22
ATOM     22  N   UNL     1     -48.609  16.574 -34.389  1.00  0.00    -0.322 N 
ATOM     23  C   UNL     1     -49.771  15.814 -34.500  1.00  0.00     0.255 C 
ATOM     24  H   UNL     1     -48.711  17.581 -34.747  1.00  0.00     0.170 HD
ATOM     25  O   UNL     1     -49.749  14.627 -34.108  1.00  0.00    -0.269 OA
BRANCH  23  26
ATOM     26  C   UNL     1     -51.042  16.307 -35.051  1.00  0.00     0.040 A 
ATOM     27  C   UNL     1     -51.120  17.439 -35.829  1.00  0.00     0.014 A 
ATOM     28  C   UNL     1     -52.232  15.650 -34.823  1.00  0.00     0.014 A 
ATOM     29  C   UNL     1     -52.327  17.879 -36.345  1.00  0.00     0.006 A 
ATOM     30  C   UNL     1     -53.455  16.045 -35.312  1.00  0.00     0.006 A 
ATOM     31  C   UNL     1     -53.513  17.181 -36.090  1.00  0.00    -0.034 A 
BRANCH  31  32
ATOM     32  C   UNL     1     -54.792  17.678 -36.651  1.00  0.00     0.120 C 
BRANCH  32  33
ATOM     33  N   UNL     1     -54.777  17.745 -38.082  1.00  0.00    -0.288 NA
ATOM     34  C   UNL     1     -54.982  16.502 -38.751  1.00  0.00     0.146 C 
ATOM     35  C   UNL     1     -55.579  18.811 -38.612  1.00  0.00     0.146 C 
ATOM     36  C   UNL     1     -56.443  16.113 -38.667  1.00  0.00     0.277 C 
ATOM     37  C   UNL     1     -57.024  18.438 -38.555  1.00  0.00     0.277 C 
ATOM     38  N   UNL     1     -57.301  17.162 -39.188  1.00  0.00    -0.335 N 
ATOM     39  C   UNL     1     -58.671  16.805 -38.866  1.00  0.00     0.332 C 
ATOM     40  H   UNL     1     -57.242  17.250 -40.219  1.00  0.00     0.347 HD
ENDBRANCH  32  33
ENDBRANCH  31  32
ENDBRANCH  23  26
ENDBRANCH   5  22
TORSDOF 7
