REMARK SMILES Cc1ccc(NC(=O)c2ccc(CN3CCN(C)CC3)cc2)cc1Nc1nccc(-c2cccnc2)n1
REMARK SMILES IDX 24 1 2 2 3 3 4 4 5 5 23 6 1 7 25 8 26 10 30 11 29 12 37 13
REMARK SMILES IDX 28 14 27 15 31 16 33 17 32 18 34 19 35 20 36 21 6 22 7 23
REMARK SMILES IDX 8 25 9 26 10 27 22 28 11 29 21 30 12 31 13 32 14 33 15 34
REMARK SMILES IDX 20 35 16 36 19 37 17 38 18 39
REMARK H PARENT 25 9 6 24
REMARK Flexibility Score: inf
ROOT
ATOM      1  C   UNL     1     -52.883  15.009 -35.291  1.00  0.00     0.046 A 
ATOM      2  C   UNL     1     -52.328  14.970 -36.578  1.00  0.00    -0.027 A 
ATOM      3  C   UNL     1     -52.142  13.764 -37.203  1.00  0.00     0.008 A 
ATOM      4  C   UNL     1     -52.480  12.578 -36.612  1.00  0.00     0.026 A 
ATOM      5  C   UNL     1     -53.035  12.567 -35.331  1.00  0.00     0.043 A 
ATOM      6  C   UNL     1     -53.212  13.772 -34.729  1.00  0.00     0.052 A 
ATOM      7  C   UNL     1     -51.961  16.263 -37.220  1.00  0.00     0.046 C 
ENDROOT
BRANCH   1   8
ATOM      8  N   UNL     1     -53.071  16.236 -34.645  1.00  0.00    -0.324 N 
ATOM      9  H   UNL     1     -53.937  16.790 -34.953  1.00  0.00     0.170 HD
BRANCH   8  10
ATOM     10  C   UNL     1     -52.297  16.855 -33.649  1.00  0.00     0.227 A 
ATOM     11  C   UNL     1     -51.615  18.881 -32.594  1.00  0.00     0.077 A 
ATOM     12  C   UNL     1     -50.816  18.177 -31.738  1.00  0.00     0.049 A 
ATOM     13  N   UNL     1     -52.324  18.217 -33.513  1.00  0.00    -0.213 NA
ATOM     14  C   UNL     1     -50.776  16.785 -31.863  1.00  0.00     0.117 A 
ATOM     15  N   UNL     1     -51.506  16.197 -32.797  1.00  0.00    -0.221 NA
BRANCH  11  16
ATOM     16  C   UNL     1     -51.678  20.332 -32.493  1.00  0.00     0.019 A 
ATOM     17  C   UNL     1     -51.170  22.443 -31.509  1.00  0.00     0.021 A 
ATOM     18  C   UNL     1     -51.055  21.044 -31.526  1.00  0.00     0.013 A 
ATOM     19  C   UNL     1     -51.916  23.045 -32.483  1.00  0.00     0.111 A 
ATOM     20  N   UNL     1     -52.546  22.349 -33.458  1.00  0.00    -0.264 NA
ATOM     21  C   UNL     1     -52.420  21.003 -33.450  1.00  0.00     0.121 A 
ENDBRANCH  11  16
ENDBRANCH   8  10
ENDBRANCH   1   8
BRANCH   5  22
ATOM     22  N   UNL     1     -53.373  11.333 -34.742  1.00  0.00    -0.322 N 
ATOM     23  C   UNL     1     -52.569  10.487 -33.959  1.00  0.00     0.255 C 
ATOM     24  H   UNL     1     -54.376  10.975 -34.904  1.00  0.00     0.170 HD
ATOM     25  O   UNL     1     -51.392  10.825 -33.720  1.00  0.00    -0.269 OA
BRANCH  23  26
ATOM     26  C   UNL     1     -53.002   9.213 -33.384  1.00  0.00     0.040 A 
ATOM     27  C   UNL     1     -52.371   8.031 -33.748  1.00  0.00     0.014 A 
ATOM     28  C   UNL     1     -54.036   9.203 -32.486  1.00  0.00     0.014 A 
ATOM     29  C   UNL     1     -52.752   6.803 -33.226  1.00  0.00     0.006 A 
ATOM     30  C   UNL     1     -54.421   7.971 -31.962  1.00  0.00     0.006 A 
ATOM     31  C   UNL     1     -53.795   6.801 -32.323  1.00  0.00    -0.034 A 
BRANCH  31  32
ATOM     32  C   UNL     1     -54.251   5.508 -31.723  1.00  0.00     0.120 C 
BRANCH  32  33
ATOM     33  N   UNL     1     -54.443   4.537 -32.745  1.00  0.00    -0.297 NA
ATOM     34  C   UNL     1     -53.985   3.213 -32.371  1.00  0.00     0.100 C 
ATOM     35  C   UNL     1     -55.772   4.416 -33.253  1.00  0.00     0.100 C 
ATOM     36  C   UNL     1     -53.761   2.466 -33.680  1.00  0.00     0.099 C 
ATOM     37  C   UNL     1     -55.826   3.499 -34.427  1.00  0.00     0.099 C 
ATOM     38  N   UNL     1     -54.951   2.398 -34.435  1.00  0.00    -0.304 NA
ATOM     39  C   UNL     1     -55.535   1.108 -34.576  1.00  0.00     0.105 C 
ENDBRANCH  32  33
ENDBRANCH  31  32
ENDBRANCH  23  26
ENDBRANCH   5  22
TORSDOF 7
