REMARK SMILES Cc1ccc(NC(=O)c2ccc(CN3CCN(C)CC3)cc2)cc1Nc1nccc(-c2cccnc2)n1
REMARK SMILES IDX 24 1 2 2 3 3 4 4 5 5 23 6 1 7 25 8 26 10 30 11 29 12 37 13
REMARK SMILES IDX 28 14 27 15 31 16 33 17 32 18 34 19 35 20 36 21 6 22 7 23
REMARK SMILES IDX 8 25 9 26 10 27 22 28 11 29 21 30 12 31 13 32 14 33 15 34
REMARK SMILES IDX 20 35 16 36 19 37 17 38 18 39
REMARK H PARENT 25 9 6 24
REMARK Flexibility Score: inf
ROOT
ATOM      1  C   UNL     1     -26.096   8.246 -48.160  1.00  0.00     0.046 A 
ATOM      2  C   UNL     1     -26.423   8.814 -49.403  1.00  0.00    -0.027 A 
ATOM      3  C   UNL     1     -27.699   8.780 -49.872  1.00  0.00     0.008 A 
ATOM      4  C   UNL     1     -28.717   8.176 -49.122  1.00  0.00     0.026 A 
ATOM      5  C   UNL     1     -28.439   7.609 -47.903  1.00  0.00     0.043 A 
ATOM      6  C   UNL     1     -27.120   7.662 -47.453  1.00  0.00     0.052 A 
ATOM      7  C   UNL     1     -25.385   9.452 -50.213  1.00  0.00     0.046 C 
ENDROOT
BRANCH   1   8
ATOM      8  N   UNL     1     -24.752   8.335 -47.754  1.00  0.00    -0.324 N 
ATOM      9  H   UNL     1     -24.064   8.821 -48.425  1.00  0.00     0.170 HD
BRANCH   8  10
ATOM     10  C   UNL     1     -24.228   7.835 -46.528  1.00  0.00     0.227 A 
ATOM     11  C   UNL     1     -22.320   7.593 -45.107  1.00  0.00     0.077 A 
ATOM     12  C   UNL     1     -23.067   6.931 -44.166  1.00  0.00     0.049 A 
ATOM     13  N   UNL     1     -22.904   8.021 -46.242  1.00  0.00    -0.213 NA
ATOM     14  C   UNL     1     -24.410   6.741 -44.455  1.00  0.00     0.117 A 
ATOM     15  N   UNL     1     -24.926   7.193 -45.603  1.00  0.00    -0.221 NA
BRANCH  11  16
ATOM     16  C   UNL     1     -20.885   7.846 -44.881  1.00  0.00     0.019 A 
ATOM     17  C   UNL     1     -18.878   7.697 -43.566  1.00  0.00     0.021 A 
ATOM     18  C   UNL     1     -20.238   7.436 -43.748  1.00  0.00     0.013 A 
ATOM     19  C   UNL     1     -18.168   8.379 -44.535  1.00  0.00     0.111 A 
ATOM     20  N   UNL     1     -18.828   8.769 -45.633  1.00  0.00    -0.264 NA
ATOM     21  C   UNL     1     -20.140   8.530 -45.836  1.00  0.00     0.121 A 
ENDBRANCH  11  16
ENDBRANCH   8  10
ENDBRANCH   1   8
BRANCH   5  22
ATOM     22  N   UNL     1     -29.465   7.006 -47.138  1.00  0.00    -0.322 N 
ATOM     23  C   UNL     1     -30.180   7.750 -46.162  1.00  0.00     0.255 C 
ATOM     24  H   UNL     1     -29.709   5.990 -47.289  1.00  0.00     0.170 HD
ATOM     25  O   UNL     1     -29.832   8.962 -46.029  1.00  0.00    -0.269 OA
BRANCH  23  26
ATOM     26  C   UNL     1     -31.258   7.185 -45.339  1.00  0.00     0.040 A 
ATOM     27  C   UNL     1     -31.750   5.913 -45.512  1.00  0.00     0.014 A 
ATOM     28  C   UNL     1     -31.818   7.953 -44.333  1.00  0.00     0.014 A 
ATOM     29  C   UNL     1     -32.774   5.410 -44.706  1.00  0.00     0.006 A 
ATOM     30  C   UNL     1     -32.828   7.449 -43.542  1.00  0.00     0.006 A 
ATOM     31  C   UNL     1     -33.332   6.175 -43.704  1.00  0.00    -0.034 A 
BRANCH  31  32
ATOM     32  C   UNL     1     -34.437   5.661 -42.841  1.00  0.00     0.120 C 
BRANCH  32  33
ATOM     33  N   UNL     1     -35.726   5.978 -43.350  1.00  0.00    -0.297 NA
ATOM     34  C   UNL     1     -36.793   5.483 -42.545  1.00  0.00     0.100 C 
ATOM     35  C   UNL     1     -35.880   5.628 -44.721  1.00  0.00     0.100 C 
ATOM     36  C   UNL     1     -38.075   6.091 -43.001  1.00  0.00     0.099 C 
ATOM     37  C   UNL     1     -37.238   5.951 -45.279  1.00  0.00     0.099 C 
ATOM     38  N   UNL     1     -38.149   6.501 -44.351  1.00  0.00    -0.304 NA
ATOM     39  C   UNL     1     -38.483   7.876 -44.564  1.00  0.00     0.105 C 
ENDBRANCH  32  33
ENDBRANCH  31  32
ENDBRANCH  23  26
ENDBRANCH   5  22
TORSDOF 7
