REMARK SMILES CCc1ccc2c3[nH]c4ccccc4c3cc[n+]2c1
REMARK SMILES IDX 3 1 19 2 4 3 5 4 6 5 18 6 17 7 16 8 15 9 7 10 8 11 9 12
REMARK SMILES IDX 14 13 13 14 12 15 11 16 10 17 2 19 1 20
REMARK H PARENT 8 18
REMARK Flexibility Score: inf
ROOT
ATOM      1  C   UNL     1       3.138  -0.547   0.351  1.00  0.00     0.016 A 
ATOM      2  C   UNL     1       2.419   0.592   0.604  1.00  0.00     0.318 A 
ATOM      3  C   UNL     1       2.427  -1.654  -0.072  1.00  0.00     0.017 A 
ATOM      4  C   UNL     1       1.036  -1.579  -0.225  1.00  0.00     0.082 A 
ATOM      5  C   UNL     1       0.385  -0.397   0.048  1.00  0.00     0.234 A 
ATOM      6  N   UNL     1       1.083   0.675   0.460  1.00  0.00    -0.165 N 
ATOM      7  C   UNL     1       0.487   1.851   0.738  1.00  0.00     0.315 A 
ATOM      8  C   UNL     1      -0.879   1.961   0.599  1.00  0.00     0.082 A 
ATOM      9  C   UNL     1      -1.642   0.895   0.181  1.00  0.00     0.020 A 
ATOM     10  C   UNL     1      -0.999  -0.292  -0.095  1.00  0.00     0.120 A 
ATOM     11  N   UNL     1      -1.923  -1.160  -0.474  1.00  0.00    -0.349 N 
ATOM     12  C   UNL     1      -3.160  -0.621  -0.468  1.00  0.00     0.047 A 
ATOM     13  C   UNL     1      -3.004   0.682  -0.055  1.00  0.00     0.008 A 
ATOM     14  C   UNL     1      -4.058   1.568   0.078  1.00  0.00     0.011 A 
ATOM     15  C   UNL     1      -5.314   1.100  -0.222  1.00  0.00     0.001 A 
ATOM     16  C   UNL     1      -5.476  -0.193  -0.632  1.00  0.00     0.002 A 
ATOM     17  C   UNL     1      -4.427  -1.066  -0.762  1.00  0.00     0.027 A 
ATOM     18  H   UNL     1      -1.745  -2.139  -0.746  1.00  0.00     0.167 HD
ENDROOT
BRANCH   1  19
ATOM     19  C   UNL     1       4.581  -0.662   0.500  1.00  0.00     0.038 C 
ATOM     20  C   UNL     1       5.393  -0.332  -0.699  1.00  0.00     0.009 C 
ENDBRANCH   1  19
TORSDOF 1
