REMARK SMILES C=CCC[C@H](C/C=C(/C)CCOC(C)=O)C(=C)C
REMARK SMILES IDX 8 1 9 2 7 3 10 4 11 5 12 6 13 7 14 8 15 9 6 10 5 11 16 12
REMARK SMILES IDX 18 13 17 14 4 15 3 16 2 17 1 18
REMARK H PARENT
REMARK Flexibility Score: inf
ROOT
ATOM      1  C   UNL     1       1.620  -0.586   1.543  1.00  0.00    -0.074 C 
ATOM      2  C   UNL     1       2.175  -1.397   2.700  1.00  0.00     0.039 C 
ATOM      3  C   UNL     1       0.903  -1.196   0.621  1.00  0.00    -0.027 C 
ENDROOT
BRANCH   1   4
ATOM      4  C   UNL     1       1.877   0.859   1.450  1.00  0.00     0.072 C 
BRANCH   4   5
ATOM      5  C   UNL     1       1.317   1.590   2.676  1.00  0.00     0.237 C 
BRANCH   5   6
ATOM      6  O   UNL     1       1.547   2.980   2.618  1.00  0.00    -0.466 OA
BRANCH   6   7
ATOM      7  C   UNL     1       2.767   3.597   2.562  1.00  0.00     0.302 C 
ATOM      8  C   UNL     1       2.907   5.067   2.503  1.00  0.00     0.139 C 
ATOM      9  O   UNL     1       3.795   2.868   2.561  1.00  0.00    -0.253 OA
ENDBRANCH   6   7
ENDBRANCH   5   6
ENDBRANCH   4   5
ENDBRANCH   1   4
BRANCH   3  10
ATOM     10  C   UNL     1       0.289  -0.587  -0.561  1.00  0.00     0.035 C 
BRANCH  10  11
ATOM     11  C   UNL     1      -1.241  -0.751  -0.553  1.00  0.00     0.018 C 
BRANCH  11  12
ATOM     12  C   UNL     1      -1.684  -2.126  -0.544  1.00  0.00    -0.077 C 
ATOM     13  C   UNL     1      -3.037  -2.470   0.002  1.00  0.00     0.039 C 
ATOM     14  C   UNL     1      -0.956  -3.142  -0.948  1.00  0.00     0.008 C 
ENDBRANCH  11  12
BRANCH  11  15
ATOM     15  C   UNL     1      -1.885   0.285  -1.379  1.00  0.00     0.012 C 
BRANCH  15  16
ATOM     16  C   UNL     1      -1.552   0.413  -2.798  1.00  0.00     0.027 C 
BRANCH  16  17
ATOM     17  C   UNL     1      -1.937  -0.702  -3.666  1.00  0.00    -0.035 C 
ATOM     18  C   UNL     1      -2.870  -1.591  -3.434  1.00  0.00     0.004 C 
ENDBRANCH  16  17
ENDBRANCH  15  16
ENDBRANCH  11  15
ENDBRANCH  10  11
ENDBRANCH   3  10
TORSDOF 10
