REMARK SMILES CC(C)[C@]12CC(=O)[C@H](C)[C@H]1C2
REMARK SMILES IDX 4 1 11 2 10 3 8 4 9 5 6 6 7 7 5 8 2 9 1 10 3 11
REMARK H PARENT
REMARK Flexibility Score: inf
ROOT
ATOM      1  C   UNL     1      -0.310  -0.157  -0.227  1.00  0.00    -0.017 C 
ATOM      2  C   UNL     1       0.018  -0.339  -1.723  1.00  0.00     0.013 C 
ATOM      3  C   UNL     1       0.854   0.507  -0.797  1.00  0.00     0.007 C 
ATOM      4  C   UNL     1       2.105  -0.170  -0.307  1.00  0.00     0.057 C 
ATOM      5  C   UNL     1       3.087   0.829   0.264  1.00  0.00     0.016 C 
ATOM      6  C   UNL     1       1.658  -1.149   0.707  1.00  0.00     0.136 C 
ATOM      7  O   UNL     1       2.398  -1.736   1.456  1.00  0.00    -0.299 OA
ATOM      8  C   UNL     1       0.174  -1.267   0.630  1.00  0.00     0.083 C 
ENDROOT
BRANCH   1   9
ATOM      9  C   UNL     1      -1.614   0.542   0.050  1.00  0.00    -0.010 C 
ATOM     10  C   UNL     1      -1.890   0.697   1.514  1.00  0.00     0.008 C 
ATOM     11  C   UNL     1      -2.757  -0.168  -0.670  1.00  0.00     0.008 C 
ENDBRANCH   1   9
TORSDOF 1
