REMARK SMILES OC[C@H]1O[C@@H](O)[C@H](O)[C@@H](O)[C@@H]1O
REMARK SMILES IDX 3 1 4 2 11 3 9 4 7 5 5 6 2 7 1 8 12 10 6 12 10 14 8 16
REMARK H PARENT 1 9 12 11 6 13 10 15 8 17
REMARK Flexibility Score: inf
ROOT
ATOM      1  C   UNL     1      -0.982  -0.438   0.293  1.00  0.00     0.178 C 
ATOM      2  O   UNL     1      -0.134  -1.389  -0.220  1.00  0.00    -0.342 OA
ATOM      3  C   UNL     1      -0.657   0.868  -0.403  1.00  0.00     0.177 C 
ATOM      4  C   UNL     1       0.665   1.323   0.185  1.00  0.00     0.179 C 
ATOM      5  C   UNL     1       1.665   0.217  -0.086  1.00  0.00     0.201 C 
ATOM      6  C   UNL     1       1.149  -1.143   0.185  1.00  0.00     0.279 C 
ENDROOT
BRANCH   1   7
ATOM      7  C   UNL     1      -2.439  -0.790   0.182  1.00  0.00     0.191 C 
BRANCH   7   8
ATOM      8  O   UNL     1      -2.870  -0.978  -1.112  1.00  0.00    -0.394 OA
ATOM      9  H   UNL     1      -2.862  -1.963  -1.281  1.00  0.00     0.210 HD
ENDBRANCH   7   8
ENDBRANCH   1   7
BRANCH   3  10
ATOM     10  O   UNL     1      -1.649   1.804  -0.308  1.00  0.00    -0.387 OA
ATOM     11  H   UNL     1      -2.218   1.715  -1.139  1.00  0.00     0.211 HD
ENDBRANCH   3  10
BRANCH   6  12
ATOM     12  O   UNL     1       1.982  -2.062  -0.491  1.00  0.00    -0.366 OA
ATOM     13  H   UNL     1       2.749  -2.334   0.044  1.00  0.00     0.213 HD
ENDBRANCH   6  12
BRANCH   4  14
ATOM     14  O   UNL     1       1.102   2.519  -0.323  1.00  0.00    -0.387 OA
ATOM     15  H   UNL     1       1.292   3.117   0.467  1.00  0.00     0.211 HD
ENDBRANCH   4  14
BRANCH   5  16
ATOM     16  O   UNL     1       2.742   0.449   0.802  1.00  0.00    -0.385 OA
ATOM     17  H   UNL     1       3.557   0.046   0.420  1.00  0.00     0.211 HD
ENDBRANCH   5  16
TORSDOF 6
