REMARK SMILES COc1c(O)cc2c(c1O)[C@@H]1O[C@H](CO)[C@@H](O)[C@H](O)[C@H]1OC2=O
REMARK SMILES IDX 13 1 12 2 16 3 18 4 20 5 11 6 8 7 9 8 3 9 4 10 6 11 7 12
REMARK SMILES IDX 22 13 23 14 21 15 14 16 15 17 17 19 19 21 10 23 2 25 1 26
REMARK SMILES IDX 5 27
REMARK H PARENT 15 18 17 20 19 22 10 24 5 28
REMARK Flexibility Score: inf
ROOT
ATOM      1  C   UNL     1      -2.248   0.797   0.926  1.00  0.00     0.176 C 
ATOM      2  O   UNL     1      -0.913   0.365   0.948  1.00  0.00    -0.361 OA
ATOM      3  C   UNL     1      -3.138  -0.345   0.594  1.00  0.00     0.178 C 
ATOM      4  C   UNL     1      -2.768  -1.079  -0.663  1.00  0.00     0.189 C 
ATOM      5  C   UNL     1      -1.288  -1.076  -0.937  1.00  0.00     0.241 C 
ATOM      6  C   UNL     1      -0.584   0.104  -0.376  1.00  0.00     0.197 C 
ATOM      7  C   UNL     1       0.846   0.039  -0.634  1.00  0.00     0.045 A 
ATOM      8  C   UNL     1       1.789   0.571   0.263  1.00  0.00     0.168 A 
ATOM      9  C   UNL     1       3.123   0.499  -0.059  1.00  0.00     0.203 A 
ATOM     10  C   UNL     1       3.582  -0.073  -1.224  1.00  0.00     0.162 A 
ATOM     11  C   UNL     1       2.654  -0.591  -2.095  1.00  0.00     0.066 A 
ATOM     12  C   UNL     1       1.295  -0.533  -1.795  1.00  0.00     0.073 A 
ATOM     13  C   UNL     1       0.318  -1.125  -2.733  1.00  0.00     0.339 C 
ATOM     14  O   UNL     1       0.742  -1.632  -3.776  1.00  0.00    -0.246 OA
ATOM     15  O   UNL     1      -1.035  -1.059  -2.353  1.00  0.00    -0.453 OA
ENDROOT
BRANCH   1  16
ATOM     16  C   UNL     1      -2.651   1.365   2.269  1.00  0.00     0.191 C 
BRANCH  16  17
ATOM     17  O   UNL     1      -3.971   1.779   2.207  1.00  0.00    -0.394 OA
ATOM     18  H   UNL     1      -4.050   2.640   1.742  1.00  0.00     0.210 HD
ENDBRANCH  16  17
ENDBRANCH   1  16
BRANCH   3  19
ATOM     19  O   UNL     1      -4.444   0.121   0.441  1.00  0.00    -0.387 OA
ATOM     20  H   UNL     1      -5.057  -0.678   0.417  1.00  0.00     0.211 HD
ENDBRANCH   3  19
BRANCH   4  21
ATOM     21  O   UNL     1      -3.165  -2.408  -0.504  1.00  0.00    -0.386 OA
ATOM     22  H   UNL     1      -4.114  -2.462  -0.220  1.00  0.00     0.211 HD
ENDBRANCH   4  21
BRANCH   8  23
ATOM     23  O   UNL     1       1.328   1.147   1.437  1.00  0.00    -0.504 OA
ATOM     24  H   UNL     1       2.022   1.527   2.075  1.00  0.00     0.293 HD
ENDBRANCH   8  23
BRANCH   9  25
ATOM     25  O   UNL     1       4.072   1.016   0.809  1.00  0.00    -0.490 OA
ATOM     26  C   UNL     1       4.665   0.227   1.836  1.00  0.00     0.278 C 
ENDBRANCH   9  25
BRANCH  10  27
ATOM     27  O   UNL     1       4.934  -0.147  -1.551  1.00  0.00    -0.504 OA
ATOM     28  H   UNL     1       5.582   0.250  -0.877  1.00  0.00     0.293 HD
ENDBRANCH  10  27
TORSDOF 7
