REMARK SMILES COc1cc(C=O)ccc1O
REMARK SMILES IDX 3 1 4 2 5 3 8 4 9 5 10 6 2 7 1 8 11 9 6 11 7 12
REMARK H PARENT 11 10
REMARK Flexibility Score: inf
ROOT
ATOM      1  C   UNL     1       0.722   0.412  -0.018  1.00  0.00     0.161 A 
ATOM      2  C   UNL     1      -0.129  -0.670  -0.053  1.00  0.00     0.062 A 
ATOM      3  C   UNL     1      -1.439  -0.558   0.358  1.00  0.00     0.018 A 
ATOM      4  C   UNL     1      -1.859   0.690   0.807  1.00  0.00     0.015 A 
ATOM      5  C   UNL     1      -1.038   1.796   0.857  1.00  0.00     0.051 A 
ATOM      6  C   UNL     1       0.257   1.626   0.435  1.00  0.00     0.157 A 
ENDROOT
BRANCH   1   7
ATOM      7  O   UNL     1       2.044   0.279  -0.437  1.00  0.00    -0.493 OA
ATOM      8  C   UNL     1       2.476  -0.982  -0.893  1.00  0.00     0.278 C 
ENDBRANCH   1   7
BRANCH   6   9
ATOM      9  O   UNL     1       1.125   2.700   0.463  1.00  0.00    -0.504 OA
ATOM     10  H   UNL     1       2.071   2.588   0.158  1.00  0.00     0.293 HD
ENDBRANCH   6   9
BRANCH   3  11
ATOM     11  C   UNL     1      -2.358  -1.696   0.329  1.00  0.00     0.260 C 
ATOM     12  O   UNL     1      -3.534  -1.539   0.712  1.00  0.00    -0.298 OA
ENDBRANCH   3  11
TORSDOF 3
