REMARK SMILES CCc1ccc2c3[nH]c4ccccc4c3cc[n+]2c1
REMARK SMILES IDX 3 1 19 2 18 3 17 4 16 5 15 6 14 7 13 8 12 9 11 10 10 11 9 12
REMARK SMILES IDX 8 13 7 14 6 15 5 16 4 17 2 19 1 20
REMARK H PARENT 8 18
REMARK Flexibility Score: inf
ROOT
ATOM      1  C   UNL     1       3.161  -0.291   0.603  1.00  0.00     0.016 A 
ATOM      2  C   UNL     1       2.450  -0.645  -0.519  1.00  0.00     0.318 A 
ATOM      3  N   UNL     1       1.102  -0.526  -0.577  1.00  0.00    -0.165 N 
ATOM      4  C   UNL     1       0.467  -0.887  -1.698  1.00  0.00     0.315 A 
ATOM      5  C   UNL     1      -0.912  -0.797  -1.842  1.00  0.00     0.082 A 
ATOM      6  C   UNL     1      -1.654  -0.315  -0.782  1.00  0.00     0.020 A 
ATOM      7  C   UNL     1      -3.007  -0.107  -0.610  1.00  0.00     0.008 A 
ATOM      8  C   UNL     1      -4.105  -0.302  -1.422  1.00  0.00     0.011 A 
ATOM      9  C   UNL     1      -5.366   0.007  -0.961  1.00  0.00     0.001 A 
ATOM     10  C   UNL     1      -5.491   0.507   0.315  1.00  0.00     0.002 A 
ATOM     11  C   UNL     1      -4.404   0.708   1.141  1.00  0.00     0.027 A 
ATOM     12  C   UNL     1      -3.136   0.395   0.670  1.00  0.00     0.047 A 
ATOM     13  N   UNL     1      -1.917   0.479   1.225  1.00  0.00    -0.349 N 
ATOM     14  C   UNL     1      -0.975   0.051   0.363  1.00  0.00     0.120 A 
ATOM     15  C   UNL     1       0.397  -0.051   0.471  1.00  0.00     0.234 A 
ATOM     16  C   UNL     1       1.079   0.311   1.609  1.00  0.00     0.082 A 
ATOM     17  C   UNL     1       2.465   0.195   1.685  1.00  0.00     0.017 A 
ATOM     18  H   UNL     1      -1.662   0.823   2.194  1.00  0.00     0.167 HD
ENDROOT
BRANCH   1  19
ATOM     19  C   UNL     1       4.607  -0.431   0.635  1.00  0.00     0.038 C 
ATOM     20  C   UNL     1       5.360   0.785   0.161  1.00  0.00     0.009 C 
ENDBRANCH   1  19
TORSDOF 1
