REMARK SMILES CN1CCC[C@H]1c1cccnc1
REMARK SMILES IDX 1 1 2 2 3 3 4 4 5 5 6 6 7 7 8 8 12 9 9 10 11 11 10 12
REMARK H PARENT
REMARK Flexibility Score: inf
ROOT
ATOM      1  C   UNL     1      -1.194  -1.827   0.565  1.00  0.00     0.106 C 
ATOM      2  N   UNL     1      -1.344  -0.421   0.428  1.00  0.00    -0.299 NA
ATOM      3  C   UNL     1      -2.572  -0.033  -0.264  1.00  0.00     0.085 C 
ATOM      4  C   UNL     1      -2.333   1.394  -0.724  1.00  0.00     0.017 C 
ATOM      5  C   UNL     1      -0.862   1.652  -0.371  1.00  0.00     0.025 C 
ATOM      6  C   UNL     1      -0.350   0.207  -0.414  1.00  0.00     0.088 C 
ENDROOT
BRANCH   6   7
ATOM      7  C   UNL     1       1.014   0.084   0.095  1.00  0.00    -0.012 A 
ATOM      8  C   UNL     1       2.014  -0.266  -0.788  1.00  0.00     0.008 A 
ATOM      9  C   UNL     1       1.354   0.299   1.411  1.00  0.00     0.116 A 
ATOM     10  C   UNL     1       3.337  -0.405  -0.387  1.00  0.00     0.020 A 
ATOM     11  N   UNL     1       2.646   0.161   1.792  1.00  0.00    -0.264 NA
ATOM     12  C   UNL     1       3.628  -0.178   0.945  1.00  0.00     0.111 A 
ENDBRANCH   6   7
TORSDOF 1
