REMARK SMILES CCC[C@@H](O)CC/C=C/C=C/C#CC#C/C=C/CO
REMARK SMILES IDX 8 1 9 2 7 3 6 4 4 5 3 6 2 7 1 8 5 9 10 11 11 12 12 13 13 14
REMARK SMILES IDX 14 15 15 16 16 17 17 18 18 19 19 20
REMARK H PARENT 5 10 19 21
REMARK Flexibility Score: inf
ROOT
ATOM      1  C   UNL     1      -1.675   0.039  -1.425  1.00  0.00    -0.027 C 
ATOM      2  C   UNL     1      -0.968   0.566  -0.468  1.00  0.00    -0.004 C 
ENDROOT
BRANCH   1   3
ATOM      3  C   UNL     1      -3.032   0.192  -1.863  1.00  0.00     0.030 C 
BRANCH   3   4
ATOM      4  C   UNL     1      -4.004   1.098  -1.281  1.00  0.00     0.036 C 
BRANCH   4   5
ATOM      5  C   UNL     1      -4.536   0.990   0.070  1.00  0.00     0.114 C 
BRANCH   5   6
ATOM      6  C   UNL     1      -5.206  -0.322   0.391  1.00  0.00     0.031 C 
BRANCH   6   7
ATOM      7  C   UNL     1      -6.317  -0.145   1.378  1.00  0.00    -0.001 C 
ATOM      8  C   UNL     1      -5.926   0.499   2.669  1.00  0.00     0.004 C 
ENDBRANCH   6   7
ENDBRANCH   5   6
BRANCH   5   9
ATOM      9  O   UNL     1      -3.900   1.541   1.154  1.00  0.00    -0.393 OA
ATOM     10  H   UNL     1      -4.240   2.426   1.383  1.00  0.00     0.210 HD
ENDBRANCH   5   9
ENDBRANCH   4   5
ENDBRANCH   3   4
ENDBRANCH   1   3
BRANCH   2  11
ATOM     11  C   UNL     1       0.422   0.172  -0.341  1.00  0.00     0.009 C 
ATOM     12  C   UNL     1       1.255   0.676   0.611  1.00  0.00     0.061 C 
BRANCH  12  13
ATOM     13  C   UNL     1       2.643   0.152   0.555  1.00  0.00    -0.061 C 
ATOM     14  C   UNL     1       3.801  -0.267   0.493  1.00  0.00    -0.010 C 
BRANCH  14  15
ATOM     15  C   UNL     1       5.071  -0.739   0.422  1.00  0.00    -0.010 C 
ATOM     16  C   UNL     1       6.182  -1.145   0.369  1.00  0.00    -0.061 C 
BRANCH  16  17
ATOM     17  C   UNL     1       7.575  -1.682   0.308  1.00  0.00     0.059 C 
ATOM     18  C   UNL     1       8.382  -1.051  -0.549  1.00  0.00     0.010 C 
BRANCH  18  19
ATOM     19  C   UNL     1       9.812  -1.474  -0.715  1.00  0.00     0.184 C 
BRANCH  19  20
ATOM     20  O   UNL     1      10.106  -1.856  -2.027  1.00  0.00    -0.392 OA
ATOM     21  H   UNL     1      11.098  -1.735  -2.147  1.00  0.00     0.210 HD
ENDBRANCH  19  20
ENDBRANCH  18  19
ENDBRANCH  16  17
ENDBRANCH  14  15
ENDBRANCH  12  13
ENDBRANCH   2  11
TORSDOF 12
