REMARK SMILES Cc1ncc(C[n+]2csc(CCO)c2C)c(N)n1
REMARK SMILES IDX 10 1 14 2 15 3 7 4 8 5 9 6 11 7 12 8 13 9 6 11 5 12 4 13
REMARK SMILES IDX 16 14 3 15 18 16 2 17 1 18 17 19
REMARK H PARENT 13 10 17 20 17 21
REMARK Flexibility Score: inf
ROOT
ATOM      1  C   UNL     1      -2.385   0.433   0.975  1.00  0.00     0.079 A 
ATOM      2  C   UNL     1      -1.471   0.253  -0.019  1.00  0.00     0.192 A 
ATOM      3  C   UNL     1      -1.725  -0.960  -0.934  1.00  0.00     0.125 C 
ATOM      4  N   UNL     1      -0.492   1.094  -0.185  1.00  0.00    -0.188 N 
ATOM      5  C   UNL     1      -0.405   2.158   0.651  1.00  0.00     0.378 A 
ATOM      6  S   UNL     1      -1.748   1.984   1.729  1.00  0.00    -0.075 S 
ENDROOT
BRANCH   1   7
ATOM      7  C   UNL     1      -3.567  -0.229   1.468  1.00  0.00     0.082 C 
BRANCH   7   8
ATOM      8  C   UNL     1      -4.869  -0.017   0.813  1.00  0.00     0.162 C 
BRANCH   8   9
ATOM      9  O   UNL     1      -4.975  -0.383  -0.512  1.00  0.00    -0.396 OA
ATOM     10  H   UNL     1      -4.949  -1.386  -0.600  1.00  0.00     0.210 HD
ENDBRANCH   8   9
ENDBRANCH   7   8
ENDBRANCH   1   7
BRANCH   4  11
ATOM     11  C   UNL     1       0.643   0.968  -1.155  1.00  0.00     0.400 C 
BRANCH  11  12
ATOM     12  C   UNL     1       1.884   0.520  -0.527  1.00  0.00     0.077 A 
ATOM     13  C   UNL     1       2.880   1.481  -0.241  1.00  0.00     0.127 A 
ATOM     14  C   UNL     1       2.194  -0.740  -0.168  1.00  0.00     0.136 A 
ATOM     15  N   UNL     1       4.033   1.136   0.344  1.00  0.00    -0.241 NA
ATOM     16  N   UNL     1       3.378  -1.072   0.429  1.00  0.00    -0.216 NA
ATOM     17  C   UNL     1       4.295  -0.132   0.683  1.00  0.00     0.127 A 
ATOM     18  C   UNL     1       5.602  -0.448   1.335  1.00  0.00     0.090 C 
BRANCH  14  19
ATOM     19  N   UNL     1       1.298  -1.814  -0.400  1.00  0.00    -0.383 N 
ATOM     20  H   UNL     1       0.730  -2.230   0.389  1.00  0.00     0.158 HD
ATOM     21  H   UNL     1       1.141  -2.254  -1.329  1.00  0.00     0.158 HD
ENDBRANCH  14  19
ENDBRANCH  11  12
ENDBRANCH   4  11
TORSDOF 6
