REMARK SMILES COc1cc2c(c3oc(=O)c4c(c13)CCC4=O)[C@@H]1C=CO[C@@H]1O2
REMARK SMILES IDX 21 1 20 2 19 3 18 4 22 5 23 6 6 7 5 8 4 9 3 10 13 11 7 12
REMARK SMILES IDX 8 13 9 14 10 15 11 16 12 17 14 18 15 19 16 20 17 21 2 22
REMARK SMILES IDX 1 23
REMARK H PARENT
REMARK Flexibility Score: inf
ROOT
ATOM      1  O   UNL     1       5.146  -0.447   0.713  1.00  0.00    -0.462 OA
ATOM      2  C   UNL     1       4.971  -0.299  -0.648  1.00  0.00     0.188 C 
ATOM      3  C   UNL     1       3.826   0.309  -0.918  1.00  0.00     0.027 C 
ATOM      4  C   UNL     1       3.162   0.600   0.380  1.00  0.00     0.135 C 
ATOM      5  C   UNL     1       3.858  -0.391   1.287  1.00  0.00     0.374 C 
ATOM      6  O   UNL     1       3.104  -1.578   1.004  1.00  0.00    -0.453 OA
ATOM      7  C   UNL     1       1.768   0.168   0.422  1.00  0.00     0.053 A 
ATOM      8  C   UNL     1       1.774  -1.158   0.803  1.00  0.00     0.135 A 
ATOM      9  C   UNL     1       0.570  -1.823   0.921  1.00  0.00     0.094 A 
ATOM     10  C   UNL     1      -0.623  -1.181   0.665  1.00  0.00     0.133 A 
ATOM     11  C   UNL     1      -0.624   0.150   0.283  1.00  0.00     0.064 A 
ATOM     12  C   UNL     1       0.573   0.831   0.160  1.00  0.00     0.150 A 
ATOM     13  O   UNL     1       0.546   2.095  -0.205  1.00  0.00    -0.422 OA
ATOM     14  C   UNL     1      -0.566   2.745  -0.458  1.00  0.00     0.347 A 
ATOM     15  O   UNL     1      -0.586   3.953  -0.806  1.00  0.00    -0.246 OA
ATOM     16  C   UNL     1      -1.790   2.106  -0.349  1.00  0.00     0.107 A 
ATOM     17  C   UNL     1      -1.822   0.767   0.034  1.00  0.00    -0.015 A 
ATOM     18  C   UNL     1      -3.208   0.288   0.087  1.00  0.00     0.045 C 
ATOM     19  C   UNL     1      -4.074   1.426  -0.373  1.00  0.00     0.086 C 
ATOM     20  C   UNL     1      -3.149   2.564  -0.562  1.00  0.00     0.170 C 
ATOM     21  O   UNL     1      -3.535   3.729  -0.861  1.00  0.00    -0.294 OA
ENDROOT
BRANCH  10  22
ATOM     22  O   UNL     1      -1.833  -1.830   0.778  1.00  0.00    -0.496 OA
ATOM     23  C   UNL     1      -1.980  -3.169   1.153  1.00  0.00     0.278 C 
ENDBRANCH  10  22
TORSDOF 1
