REMARK SMILES COc1ccc2[nH]cc(CCNC(C)=O)c2c1
REMARK SMILES IDX 10 1 11 2 12 3 14 4 13 5 15 6 9 8 8 9 16 10 7 11 6 12 17 13
REMARK SMILES IDX 5 15 3 16 4 17 2 18 1 19
REMARK H PARENT 12 7 7 14
REMARK Flexibility Score: inf
ROOT
ATOM      1  C   UNL     1       1.569  -0.926  -0.996  1.00  0.00     0.059 C 
ENDROOT
BRANCH   1   2
ATOM      2  C   UNL     1       2.045   0.039   0.049  1.00  0.00     0.120 C 
BRANCH   2   3
ATOM      3  N   UNL     1       3.184   0.817  -0.392  1.00  0.00    -0.356 N 
ATOM      4  C   UNL     1       4.899   2.623   0.167  1.00  0.00     0.114 C 
ATOM      5  C   UNL     1       3.716   1.764   0.526  1.00  0.00     0.216 C 
ATOM      6  O   UNL     1       3.189   1.895   1.675  1.00  0.00    -0.275 OA
ATOM      7  H   UNL     1       3.624   0.722  -1.323  1.00  0.00     0.163 HD
ENDBRANCH   2   3
ENDBRANCH   1   2
BRANCH   1   8
ATOM      8  C   UNL     1       0.407  -1.662  -0.451  1.00  0.00    -0.021 A 
ATOM      9  C   UNL     1       0.369  -2.949   0.021  1.00  0.00     0.087 A 
ATOM     10  C   UNL     1      -0.863  -1.152  -0.331  1.00  0.00     0.006 A 
ATOM     11  N   UNL     1      -0.892  -3.223   0.421  1.00  0.00    -0.361 N 
ATOM     12  C   UNL     1      -1.670  -2.154   0.222  1.00  0.00     0.046 A 
ATOM     13  C   UNL     1      -1.426   0.072  -0.638  1.00  0.00     0.057 A 
ATOM     14  H   UNL     1      -1.252  -4.128   0.833  1.00  0.00     0.166 HD
ATOM     15  C   UNL     1      -3.004  -1.882   0.442  1.00  0.00     0.030 A 
ATOM     16  C   UNL     1      -2.758   0.348  -0.420  1.00  0.00     0.119 A 
ATOM     17  C   UNL     1      -3.546  -0.636   0.123  1.00  0.00     0.048 A 
BRANCH  16  18
ATOM     18  O   UNL     1      -3.209   1.602  -0.763  1.00  0.00    -0.497 OA
ATOM     19  C   UNL     1      -4.544   2.007  -0.591  1.00  0.00     0.278 C 
ENDBRANCH  16  18
ENDBRANCH   1   8
TORSDOF 4
