REMARK SMILES COc1c(O)cc2c(c1O)[C@@H]1O[C@H](CO)[C@@H](O)[C@H](O)[C@H]1OC2=O
REMARK SMILES IDX 13 1 12 2 16 3 18 4 20 5 11 6 8 7 9 8 3 9 4 10 6 11 7 12
REMARK SMILES IDX 22 13 23 14 21 15 14 16 15 17 17 19 19 21 10 23 2 25 1 26
REMARK SMILES IDX 5 27
REMARK H PARENT 15 18 17 20 19 22 10 24 5 28
REMARK Flexibility Score: inf
ROOT
ATOM      1  C   UNL     1      -2.274   0.954  -0.683  1.00  0.00     0.176 C 
ATOM      2  O   UNL     1      -1.058   0.896   0.002  1.00  0.00    -0.361 OA
ATOM      3  C   UNL     1      -3.263  -0.072  -0.176  1.00  0.00     0.178 C 
ATOM      4  C   UNL     1      -2.673  -1.426  -0.009  1.00  0.00     0.189 C 
ATOM      5  C   UNL     1      -1.211  -1.386   0.360  1.00  0.00     0.241 C 
ATOM      6  C   UNL     1      -0.458  -0.317  -0.385  1.00  0.00     0.197 C 
ATOM      7  C   UNL     1       0.977  -0.387   0.039  1.00  0.00     0.045 A 
ATOM      8  C   UNL     1       1.798   0.720  -0.083  1.00  0.00     0.168 A 
ATOM      9  C   UNL     1       3.135   0.649   0.336  1.00  0.00     0.203 A 
ATOM     10  C   UNL     1       3.611  -0.522   0.862  1.00  0.00     0.162 A 
ATOM     11  C   UNL     1       2.829  -1.645   1.000  1.00  0.00     0.066 A 
ATOM     12  C   UNL     1       1.514  -1.560   0.583  1.00  0.00     0.073 A 
ATOM     13  C   UNL     1       0.682  -2.771   0.703  1.00  0.00     0.339 C 
ATOM     14  O   UNL     1       1.181  -3.817   1.194  1.00  0.00    -0.246 OA
ATOM     15  O   UNL     1      -0.619  -2.654   0.252  1.00  0.00    -0.453 OA
ENDROOT
BRANCH   1  16
ATOM     16  C   UNL     1      -2.936   2.318  -0.497  1.00  0.00     0.191 C 
BRANCH  16  17
ATOM     17  O   UNL     1      -4.136   2.281  -1.213  1.00  0.00    -0.394 OA
ATOM     18  H   UNL     1      -4.921   2.172  -0.596  1.00  0.00     0.210 HD
ENDBRANCH  16  17
ENDBRANCH   1  16
BRANCH   3  19
ATOM     19  O   UNL     1      -4.322  -0.141  -1.068  1.00  0.00    -0.387 OA
ATOM     20  H   UNL     1      -4.697  -1.049  -1.169  1.00  0.00     0.211 HD
ENDBRANCH   3  19
BRANCH   4  21
ATOM     21  O   UNL     1      -3.347  -2.074   1.030  1.00  0.00    -0.386 OA
ATOM     22  H   UNL     1      -2.772  -2.303   1.784  1.00  0.00     0.211 HD
ENDBRANCH   4  21
BRANCH   8  23
ATOM     23  O   UNL     1       1.362   1.912  -0.610  1.00  0.00    -0.504 OA
ATOM     24  H   UNL     1       0.475   2.150  -0.972  1.00  0.00     0.293 HD
ENDBRANCH   8  23
BRANCH   9  25
ATOM     25  O   UNL     1       3.976   1.750   0.222  1.00  0.00    -0.490 OA
ATOM     26  C   UNL     1       4.737   1.929  -0.977  1.00  0.00     0.278 C 
ENDBRANCH   9  25
BRANCH  10  27
ATOM     27  O   UNL     1       4.930  -0.619   1.284  1.00  0.00    -0.504 OA
ATOM     28  H   UNL     1       5.331  -1.438   1.673  1.00  0.00     0.293 HD
ENDBRANCH  10  27
TORSDOF 7
