REMARK SMILES CC[C@H]1CC[C@@]2(CCCO2)O1
REMARK SMILES IDX 3 1 11 2 4 3 5 4 6 5 7 6 8 7 9 8 10 9 2 10 1 11
REMARK H PARENT
REMARK Flexibility Score: inf
ROOT
ATOM      1  C   UNL     1       1.171   0.228   0.091  1.00  0.00     0.121 C 
ATOM      2  O   UNL     1       0.083   0.877   0.670  1.00  0.00    -0.347 OA
ATOM      3  C   UNL     1       1.086  -1.139   0.704  1.00  0.00     0.038 C 
ATOM      4  C   UNL     1      -0.431  -1.371   0.712  1.00  0.00     0.068 C 
ATOM      5  C   UNL     1      -0.953  -0.013   0.325  1.00  0.00     0.168 C 
ATOM      6  C   UNL     1      -2.229   0.315   1.055  1.00  0.00     0.068 C 
ATOM      7  C   UNL     1      -3.065   0.898  -0.066  1.00  0.00     0.034 C 
ATOM      8  C   UNL     1      -2.555   0.020  -1.218  1.00  0.00     0.164 C 
ATOM      9  O   UNL     1      -1.179   0.128  -1.019  1.00  0.00    -0.350 OA
ENDROOT
BRANCH   1  10
ATOM     10  C   UNL     1       2.473   0.925   0.383  1.00  0.00     0.029 C 
ATOM     11  C   UNL     1       3.648   0.219  -0.245  1.00  0.00     0.006 C 
ENDBRANCH   1  10
TORSDOF 1
