REMARK SMILES COc1ccc2[nH]cc(CCNC(C)=O)c2c1
REMARK SMILES IDX 10 1 11 2 12 3 14 4 13 5 15 6 9 8 8 9 16 10 7 11 6 12 17 13
REMARK SMILES IDX 5 15 3 16 4 17 2 18 1 19
REMARK H PARENT 12 7 7 14
REMARK Flexibility Score: inf
ROOT
ATOM      1  C   UNL     1      -1.112   0.267   0.068  1.00  0.00     0.059 C 
ENDROOT
BRANCH   1   2
ATOM      2  C   UNL     1      -2.494   0.228  -0.559  1.00  0.00     0.120 C 
BRANCH   2   3
ATOM      3  N   UNL     1      -3.548   0.379   0.396  1.00  0.00    -0.356 N 
ATOM      4  C   UNL     1      -4.867  -0.286   2.423  1.00  0.00     0.114 C 
ATOM      5  C   UNL     1      -3.733  -0.515   1.460  1.00  0.00     0.216 C 
ATOM      6  O   UNL     1      -2.961  -1.490   1.602  1.00  0.00    -0.275 OA
ATOM      7  H   UNL     1      -4.215   1.182   0.310  1.00  0.00     0.163 HD
ENDBRANCH   2   3
ENDBRANCH   1   2
BRANCH   1   8
ATOM      8  C   UNL     1      -0.135   0.099  -1.040  1.00  0.00    -0.021 A 
ATOM      9  C   UNL     1      -0.365  -0.063  -2.390  1.00  0.00     0.087 A 
ATOM     10  C   UNL     1       1.261   0.073  -0.930  1.00  0.00     0.006 A 
ATOM     11  N   UNL     1       0.792  -0.181  -3.065  1.00  0.00    -0.361 N 
ATOM     12  C   UNL     1       1.818  -0.101  -2.184  1.00  0.00     0.046 A 
ATOM     13  C   UNL     1       2.095   0.184   0.148  1.00  0.00     0.057 A 
ATOM     14  H   UNL     1       0.930  -0.314  -4.091  1.00  0.00     0.166 HD
ATOM     15  C   UNL     1       3.183  -0.165  -2.379  1.00  0.00     0.030 A 
ATOM     16  C   UNL     1       3.452   0.120  -0.045  1.00  0.00     0.119 A 
ATOM     17  C   UNL     1       4.015  -0.055  -1.310  1.00  0.00     0.048 A 
BRANCH  16  18
ATOM     18  O   UNL     1       4.328   0.227   1.009  1.00  0.00    -0.497 OA
ATOM     19  C   UNL     1       3.844   0.405   2.310  1.00  0.00     0.278 C 
ENDBRANCH  16  18
ENDBRANCH   1   8
TORSDOF 4
