REMARK SMILES COc1ccc2[nH]cc(CCNC(C)=O)c2c1
REMARK SMILES IDX 10 1 11 2 12 3 14 4 13 5 15 6 9 8 8 9 16 10 7 11 6 12 17 13
REMARK SMILES IDX 5 15 3 16 4 17 2 18 1 19
REMARK H PARENT 12 7 7 14
REMARK Flexibility Score: inf
ROOT
ATOM      1  C   UNL     1      -0.999  -0.784  -1.964  1.00  0.00     0.059 C 
ENDROOT
BRANCH   1   2
ATOM      2  C   UNL     1      -2.234  -0.174  -1.431  1.00  0.00     0.120 C 
BRANCH   2   3
ATOM      3  N   UNL     1      -2.033   0.724  -0.354  1.00  0.00    -0.356 N 
ATOM      4  C   UNL     1      -2.949   2.298   1.363  1.00  0.00     0.114 C 
ATOM      5  C   UNL     1      -3.193   1.363   0.241  1.00  0.00     0.216 C 
ATOM      6  O   UNL     1      -4.301   1.079  -0.234  1.00  0.00    -0.275 OA
ATOM      7  H   UNL     1      -1.091   0.953   0.033  1.00  0.00     0.163 HD
ENDBRANCH   2   3
ENDBRANCH   1   2
BRANCH   1   8
ATOM      8  C   UNL     1      -0.181  -1.590  -1.059  1.00  0.00    -0.021 A 
ATOM      9  C   UNL     1      -0.346  -2.962  -0.795  1.00  0.00     0.087 A 
ATOM     10  C   UNL     1       0.844  -1.148  -0.259  1.00  0.00     0.006 A 
ATOM     11  N   UNL     1       0.556  -3.286   0.127  1.00  0.00    -0.361 N 
ATOM     12  C   UNL     1       1.286  -2.230   0.472  1.00  0.00     0.046 A 
ATOM     13  C   UNL     1       1.481   0.082  -0.088  1.00  0.00     0.057 A 
ATOM     14  H   UNL     1       0.676  -4.247   0.532  1.00  0.00     0.166 HD
ATOM     15  C   UNL     1       2.347  -2.038   1.352  1.00  0.00     0.030 A 
ATOM     16  C   UNL     1       2.529   0.278   0.777  1.00  0.00     0.119 A 
ATOM     17  C   UNL     1       2.945  -0.821   1.496  1.00  0.00     0.048 A 
BRANCH  16  18
ATOM     18  O   UNL     1       3.175   1.489   0.962  1.00  0.00    -0.497 OA
ATOM     19  C   UNL     1       2.777   2.654   0.233  1.00  0.00     0.278 C 
ENDBRANCH  16  18
ENDBRANCH   1   8
TORSDOF 4
