REMARK SMILES CCC[C@@H](O)CC/C=C/C=C/C#CC#C/C=C/CO
REMARK SMILES IDX 8 1 9 2 7 3 6 4 4 5 3 6 2 7 1 8 5 9 10 11 11 12 12 13 13 14
REMARK SMILES IDX 14 15 15 16 16 17 17 18 18 19 19 20
REMARK H PARENT 5 10 19 21
REMARK Flexibility Score: inf
ROOT
ATOM      1  C   UNL     1      -1.385  -0.893   0.747  1.00  0.00    -0.027 C 
ATOM      2  C   UNL     1      -0.641   0.081   0.293  1.00  0.00    -0.004 C 
ENDROOT
BRANCH   1   3
ATOM      3  C   UNL     1      -2.838  -0.880   0.709  1.00  0.00     0.030 C 
BRANCH   3   4
ATOM      4  C   UNL     1      -3.352   0.362   0.046  1.00  0.00     0.036 C 
BRANCH   4   5
ATOM      5  C   UNL     1      -4.884   0.392   0.064  1.00  0.00     0.114 C 
BRANCH   5   6
ATOM      6  C   UNL     1      -5.467  -0.774  -0.637  1.00  0.00     0.031 C 
BRANCH   6   7
ATOM      7  C   UNL     1      -6.967  -0.875  -0.521  1.00  0.00    -0.001 C 
ATOM      8  C   UNL     1      -7.736   0.267  -1.053  1.00  0.00     0.004 C 
ENDBRANCH   6   7
ENDBRANCH   5   6
BRANCH   5   9
ATOM      9  O   UNL     1      -5.202   0.324   1.442  1.00  0.00    -0.393 OA
ATOM     10  H   UNL     1      -5.355  -0.631   1.662  1.00  0.00     0.210 HD
ENDBRANCH   5   9
ENDBRANCH   4   5
ENDBRANCH   3   4
ENDBRANCH   1   3
BRANCH   2  11
ATOM     11  C   UNL     1       0.803  -0.073   0.400  1.00  0.00     0.009 C 
ATOM     12  C   UNL     1       1.684   0.841  -0.012  1.00  0.00     0.061 C 
BRANCH  12  13
ATOM     13  C   UNL     1       3.083   0.653   0.103  1.00  0.00    -0.061 C 
ATOM     14  C   UNL     1       4.242   0.513   0.211  1.00  0.00    -0.010 C 
BRANCH  14  15
ATOM     15  C   UNL     1       5.602   0.340   0.322  1.00  0.00    -0.010 C 
ATOM     16  C   UNL     1       6.715   0.206   0.407  1.00  0.00    -0.061 C 
BRANCH  16  17
ATOM     17  C   UNL     1       7.942   0.077   0.511  1.00  0.00     0.059 C 
ATOM     18  C   UNL     1       9.226  -0.058   0.675  1.00  0.00     0.010 C 
BRANCH  18  19
ATOM     19  C   UNL     1      10.434  -0.178  -0.042  1.00  0.00     0.184 C 
BRANCH  19  20
ATOM     20  O   UNL     1      10.267  -0.136  -1.454  1.00  0.00    -0.392 OA
ATOM     21  H   UNL     1      10.048   0.803  -1.702  1.00  0.00     0.210 HD
ENDBRANCH  19  20
ENDBRANCH  18  19
ENDBRANCH  16  17
ENDBRANCH  14  15
ENDBRANCH  12  13
ENDBRANCH   2  11
TORSDOF 12
