REMARK SMILES Cc1ncc(C[n+]2csc(CCO)c2C)c(N)n1
REMARK SMILES IDX 10 1 14 2 15 3 7 4 8 5 9 6 11 7 12 8 13 9 6 11 5 12 4 13
REMARK SMILES IDX 16 14 3 15 18 16 2 17 1 18 17 19
REMARK H PARENT 13 10 17 20 17 21
REMARK Flexibility Score: inf
ROOT
ATOM      1  C   UNL     1      -2.423  -0.948  -0.514  1.00  0.00     0.079 A 
ATOM      2  C   UNL     1      -1.469  -0.143   0.062  1.00  0.00     0.192 A 
ATOM      3  C   UNL     1      -1.470   1.333  -0.358  1.00  0.00     0.125 C 
ATOM      4  N   UNL     1      -0.602  -0.643   0.895  1.00  0.00    -0.188 N 
ATOM      5  C   UNL     1      -0.675  -1.965   1.168  1.00  0.00     0.378 A 
ATOM      6  S   UNL     1      -2.075  -2.566   0.175  1.00  0.00    -0.075 S 
ENDROOT
BRANCH   1   7
ATOM      7  C   UNL     1      -3.548  -0.709  -1.430  1.00  0.00     0.082 C 
BRANCH   7   8
ATOM      8  C   UNL     1      -4.800  -0.217  -0.802  1.00  0.00     0.162 C 
BRANCH   8   9
ATOM      9  O   UNL     1      -4.753   0.961  -0.121  1.00  0.00    -0.396 OA
ATOM     10  H   UNL     1      -4.998   1.712  -0.724  1.00  0.00     0.210 HD
ENDBRANCH   8   9
ENDBRANCH   7   8
ENDBRANCH   1   7
BRANCH   4  11
ATOM     11  C   UNL     1       0.439   0.174   1.578  1.00  0.00     0.400 C 
BRANCH  11  12
ATOM     12  C   UNL     1       1.690   0.306   0.834  1.00  0.00     0.077 A 
ATOM     13  C   UNL     1       2.003   1.494   0.180  1.00  0.00     0.127 A 
ATOM     14  C   UNL     1       2.652  -0.669   0.711  1.00  0.00     0.136 A 
ATOM     15  N   UNL     1       3.128   1.665  -0.500  1.00  0.00    -0.241 NA
ATOM     16  N   UNL     1       3.801  -0.475   0.009  1.00  0.00    -0.216 NA
ATOM     17  C   UNL     1       4.039   0.691  -0.596  1.00  0.00     0.127 A 
ATOM     18  C   UNL     1       5.298   0.938  -1.377  1.00  0.00     0.090 C 
BRANCH  14  19
ATOM     19  N   UNL     1       2.486  -1.938   1.339  1.00  0.00    -0.383 N 
ATOM     20  H   UNL     1       2.401  -1.957   2.371  1.00  0.00     0.158 HD
ATOM     21  H   UNL     1       2.449  -2.816   0.787  1.00  0.00     0.158 HD
ENDBRANCH  14  19
ENDBRANCH  11  12
ENDBRANCH   4  11
TORSDOF 6
