REMARK SMILES CC[C@H]1CC[C@@]2(CCCO2)O1
REMARK SMILES IDX 3 1 11 2 4 3 5 4 6 5 7 6 8 7 9 8 10 9 2 10 1 11
REMARK H PARENT
REMARK Flexibility Score: inf
ROOT
ATOM      1  C   UNL     1      -0.994   0.145  -0.112  1.00  0.00     0.121 C 
ATOM      2  O   UNL     1       0.152  -0.316  -0.784  1.00  0.00    -0.347 OA
ATOM      3  C   UNL     1      -1.194  -0.917   0.915  1.00  0.00     0.038 C 
ATOM      4  C   UNL     1       0.247  -1.361   1.209  1.00  0.00     0.068 C 
ATOM      5  C   UNL     1       1.011  -0.453   0.296  1.00  0.00     0.168 C 
ATOM      6  C   UNL     1       2.371  -0.938  -0.068  1.00  0.00     0.068 C 
ATOM      7  C   UNL     1       2.943   0.330  -0.717  1.00  0.00     0.034 C 
ATOM      8  C   UNL     1       2.068   1.402  -0.125  1.00  0.00     0.164 C 
ATOM      9  O   UNL     1       1.249   0.797   0.817  1.00  0.00    -0.350 OA
ENDROOT
BRANCH   1  10
ATOM     10  C   UNL     1      -2.161   0.321  -1.037  1.00  0.00     0.029 C 
ATOM     11  C   UNL     1      -3.328   0.817  -0.210  1.00  0.00     0.006 C 
ENDBRANCH   1  10
TORSDOF 1
