REMARK SMILES COc1cc(C=O)ccc1O
REMARK SMILES IDX 5 1 8 2 9 3 10 4 3 5 4 6 6 7 7 8 2 9 1 10 11 11
REMARK H PARENT 11 12
REMARK Flexibility Score: inf
ROOT
ATOM      1  C   UNL     1      -1.403  -0.663   0.136  1.00  0.00     0.018 A 
ATOM      2  C   UNL     1      -1.954   0.576  -0.116  1.00  0.00     0.015 A 
ATOM      3  C   UNL     1      -1.175   1.697  -0.348  1.00  0.00     0.051 A 
ATOM      4  C   UNL     1       0.201   1.611  -0.333  1.00  0.00     0.157 A 
ATOM      5  C   UNL     1       0.760   0.376  -0.082  1.00  0.00     0.161 A 
ATOM      6  C   UNL     1      -0.027  -0.740   0.148  1.00  0.00     0.062 A 
ENDROOT
BRANCH   1   7
ATOM      7  C   UNL     1      -2.253  -1.823   0.375  1.00  0.00     0.260 C 
ATOM      8  O   UNL     1      -3.503  -1.693   0.351  1.00  0.00    -0.298 OA
ENDBRANCH   1   7
BRANCH   5   9
ATOM      9  O   UNL     1       2.135   0.290  -0.068  1.00  0.00    -0.493 OA
ATOM     10  C   UNL     1       2.784  -0.946   0.183  1.00  0.00     0.278 C 
ENDBRANCH   5   9
BRANCH   4  11
ATOM     11  O   UNL     1       1.003   2.739  -0.566  1.00  0.00    -0.504 OA
ATOM     12  H   UNL     1       0.600   3.647  -0.750  1.00  0.00     0.293 HD
ENDBRANCH   4  11
TORSDOF 3
