REMARK SMILES C=CCC[C@H](C/C=C(/C)CCOC(C)=O)C(=C)C
REMARK SMILES IDX 8 1 9 2 7 3 10 4 11 5 12 6 13 7 14 8 15 9 6 10 5 11 16 12
REMARK SMILES IDX 18 13 17 14 4 15 3 16 2 17 1 18
REMARK H PARENT
REMARK Flexibility Score: inf
ROOT
ATOM      1  C   UNL     1      -1.180  -0.957  -0.778  1.00  0.00    -0.074 C 
ATOM      2  C   UNL     1      -1.810  -2.277  -1.142  1.00  0.00     0.039 C 
ATOM      3  C   UNL     1      -0.131  -0.585  -1.446  1.00  0.00    -0.027 C 
ENDROOT
BRANCH   1   4
ATOM      4  C   UNL     1      -1.783  -0.181   0.297  1.00  0.00     0.072 C 
BRANCH   4   5
ATOM      5  C   UNL     1      -3.232   0.101  -0.162  1.00  0.00     0.237 C 
BRANCH   5   6
ATOM      6  O   UNL     1      -3.955   0.845   0.764  1.00  0.00    -0.466 OA
BRANCH   6   7
ATOM      7  C   UNL     1      -4.242   0.506   2.056  1.00  0.00     0.302 C 
ATOM      8  C   UNL     1      -5.040   1.473   2.868  1.00  0.00     0.139 C 
ATOM      9  O   UNL     1      -3.831  -0.580   2.492  1.00  0.00    -0.253 OA
ENDBRANCH   6   7
ENDBRANCH   5   6
ENDBRANCH   4   5
ENDBRANCH   1   4
BRANCH   3  10
ATOM     10  C   UNL     1       0.578   0.665  -1.198  1.00  0.00     0.035 C 
BRANCH  10  11
ATOM     11  C   UNL     1       2.038   0.301  -0.917  1.00  0.00     0.018 C 
BRANCH  11  12
ATOM     12  C   UNL     1       2.654  -0.407  -2.067  1.00  0.00    -0.077 C 
ATOM     13  C   UNL     1       2.591   0.197  -3.439  1.00  0.00     0.039 C 
ATOM     14  C   UNL     1       3.273  -1.573  -1.949  1.00  0.00     0.008 C 
ENDBRANCH  11  12
BRANCH  11  15
ATOM     15  C   UNL     1       2.237  -0.498   0.319  1.00  0.00     0.012 C 
BRANCH  15  16
ATOM     16  C   UNL     1       1.796   0.150   1.594  1.00  0.00     0.027 C 
BRANCH  16  17
ATOM     17  C   UNL     1       2.510   1.428   1.853  1.00  0.00    -0.035 C 
ATOM     18  C   UNL     1       3.261   1.625   2.949  1.00  0.00     0.004 C 
ENDBRANCH  16  17
ENDBRANCH  15  16
ENDBRANCH  11  15
ENDBRANCH  10  11
ENDBRANCH   3  10
TORSDOF 10
