REMARK SMILES C=C/C=C\CC1=C(C)[C@@H](OC(=O)[C@@H]2[C@@H](/C=C(\C)C(=O)OC)C2(C)C)CC1=O
REMARK SMILES IDX 11 1 12 2 10 3 9 4 8 5 7 6 6 7 26 8 25 9 27 10 5 11 4 12
REMARK SMILES IDX 3 13 2 14 1 15 13 16 14 17 22 18 23 19 24 20 15 21 16 22
REMARK SMILES IDX 17 23 18 24 19 25 20 26 21 27
REMARK H PARENT
REMARK Flexibility Score: inf
ROOT
ATOM      1  C   UNL     1      -0.309  -1.593   0.574  1.00  0.00     0.310 C 
ATOM      2  O   UNL     1       0.180  -2.759   0.773  1.00  0.00    -0.252 OA
ENDROOT
BRANCH   1   3
ATOM      3  O   UNL     1       0.449  -0.780  -0.266  1.00  0.00    -0.457 OA
BRANCH   3   4
ATOM      4  C   UNL     1       1.636  -1.241  -0.837  1.00  0.00     0.210 C 
ATOM      5  C   UNL     1       2.835   0.186   1.044  1.00  0.00     0.044 C 
ATOM      6  C   UNL     1       2.764  -0.369  -0.351  1.00  0.00    -0.026 C 
ATOM      7  C   UNL     1       3.666  -0.194  -1.293  1.00  0.00     0.002 C 
ATOM      8  C   UNL     1       3.178  -0.920  -2.509  1.00  0.00     0.163 C 
ATOM      9  C   UNL     1       1.720  -1.065  -2.328  1.00  0.00     0.130 C 
ATOM     10  O   UNL     1       3.917  -1.290  -3.438  1.00  0.00    -0.294 OA
BRANCH   7  11
ATOM     11  C   UNL     1       4.966   0.521  -1.306  1.00  0.00     0.066 C 
BRANCH  11  12
ATOM     12  C   UNL     1       5.273   1.099  -0.001  1.00  0.00    -0.022 C 
ATOM     13  C   UNL     1       6.399   0.660   0.624  1.00  0.00    -0.005 C 
BRANCH  13  14
ATOM     14  C   UNL     1       7.204  -0.322  -0.008  1.00  0.00    -0.008 C 
ATOM     15  C   UNL     1       7.896  -1.164  -0.549  1.00  0.00     0.008 C 
ENDBRANCH  13  14
ENDBRANCH  11  12
ENDBRANCH   7  11
ENDBRANCH   3   4
ENDBRANCH   1   3
BRANCH   1  16
ATOM     16  C   UNL     1      -1.575  -1.159   1.193  1.00  0.00     0.113 C 
ATOM     17  C   UNL     1      -2.578  -0.409   0.369  1.00  0.00     0.033 C 
ATOM     18  C   UNL     1      -1.813   0.269   1.444  1.00  0.00    -0.014 C 
ATOM     19  C   UNL     1      -2.479   0.626   2.749  1.00  0.00     0.012 C 
ATOM     20  C   UNL     1      -0.842   1.328   0.958  1.00  0.00     0.012 C 
BRANCH  17  21
ATOM     21  C   UNL     1      -4.028  -0.661   0.621  1.00  0.00    -0.011 C 
ATOM     22  C   UNL     1      -4.957  -0.134  -0.161  1.00  0.00     0.030 C 
ATOM     23  C   UNL     1      -4.479   0.715  -1.291  1.00  0.00     0.052 C 
BRANCH  22  24
ATOM     24  C   UNL     1      -6.381  -0.368   0.070  1.00  0.00     0.333 C 
ATOM     25  O   UNL     1      -6.740  -1.085   1.028  1.00  0.00    -0.247 OA
BRANCH  24  26
ATOM     26  O   UNL     1      -7.371   0.171  -0.728  1.00  0.00    -0.466 OA
ATOM     27  C   UNL     1      -8.757  -0.061  -0.500  1.00  0.00     0.282 C 
ENDBRANCH  24  26
ENDBRANCH  22  24
ENDBRANCH  17  21
ENDBRANCH   1  16
TORSDOF 9
