REMARK SMILES CN=C=O
REMARK SMILES IDX 1 1 2 2 3 3 4 4
REMARK H PARENT
REMARK Flexibility Score: inf
ROOT
ATOM      1  C   UNL     1      -0.876   0.030   0.070  1.00  0.00     0.187 C 
ATOM      2  N   UNL     1       0.412  -0.066   0.689  1.00  0.00    -0.209 NA
ATOM      3  C   UNL     1       1.434  -0.063  -0.086  1.00  0.00     0.234 C 
ATOM      4  O   UNL     1       2.613  -0.057  -0.428  1.00  0.00    -0.211 OA
ENDROOT
TORSDOF 0
