REMARK SMILES COc1ccc2[nH]cc(CCNC(C)=O)c2c1
REMARK SMILES IDX 10 1 11 2 12 3 14 4 13 5 15 6 9 8 8 9 16 10 7 11 6 12 17 13
REMARK SMILES IDX 5 15 3 16 4 17 2 18 1 19
REMARK H PARENT 12 7 7 14
REMARK Flexibility Score: inf
ROOT
ATOM      1  C   UNL     1      -1.086  -0.865   0.614  1.00  0.00     0.059 C 
ENDROOT
BRANCH   1   2
ATOM      2  C   UNL     1      -2.326  -1.204  -0.148  1.00  0.00     0.120 C 
BRANCH   2   3
ATOM      3  N   UNL     1      -3.338  -0.203   0.065  1.00  0.00    -0.356 N 
ATOM      4  C   UNL     1      -5.618   0.860  -0.265  1.00  0.00     0.114 C 
ATOM      5  C   UNL     1      -4.625  -0.205  -0.529  1.00  0.00     0.216 C 
ATOM      6  O   UNL     1      -4.925  -1.149  -1.300  1.00  0.00    -0.275 OA
ATOM      7  H   UNL     1      -3.143   0.580   0.723  1.00  0.00     0.163 HD
ENDBRANCH   2   3
ENDBRANCH   1   2
BRANCH   1   8
ATOM      8  C   UNL     1      -0.365   0.342   0.166  1.00  0.00    -0.021 A 
ATOM      9  C   UNL     1      -0.788   1.568  -0.287  1.00  0.00     0.087 A 
ATOM     10  C   UNL     1       1.040   0.410   0.074  1.00  0.00     0.006 A 
ATOM     11  N   UNL     1       0.296   2.329  -0.629  1.00  0.00    -0.361 N 
ATOM     12  C   UNL     1       1.417   1.622  -0.409  1.00  0.00     0.046 A 
ATOM     13  C   UNL     1       1.980  -0.530   0.423  1.00  0.00     0.057 A 
ATOM     14  H   UNL     1       0.300   3.303  -1.008  1.00  0.00     0.166 HD
ATOM     15  C   UNL     1       2.771   1.938  -0.561  1.00  0.00     0.030 A 
ATOM     16  C   UNL     1       3.329  -0.224   0.278  1.00  0.00     0.119 A 
ATOM     17  C   UNL     1       3.720   0.998  -0.210  1.00  0.00     0.048 A 
BRANCH  16  18
ATOM     18  O   UNL     1       4.244  -1.191   0.642  1.00  0.00    -0.497 OA
ATOM     19  C   UNL     1       5.638  -1.041   0.572  1.00  0.00     0.278 C 
ENDBRANCH  16  18
ENDBRANCH   1   8
TORSDOF 4
