MODEL 1
REMARK VINA RESULT:    -8.023      0.000      0.000
REMARK INTER + INTRA:         -13.511
REMARK INTER:                 -12.364
REMARK INTRA:                  -1.147
REMARK UNBOUND:                -1.266
REMARK SMILES COC(=O)C[C@H](CCc1ccc(C(=N)N)cc1)c1cccc(C(=N)N)c1
REMARK SMILES IDX 7 1 6 2 18 3 21 4 20 5 22 6 19 7 26 8 23 9 25 10 24 11 5 15
REMARK SMILES IDX 3 16 4 17 2 18 1 19 8 20 9 21 10 22 17 23 11 24 16 25 12 26
REMARK SMILES IDX 13 27 15 28 14 29
REMARK H PARENT 25 12 25 13 24 14 15 30 15 31 14 32
REMARK Flexibility Score: inf
ROOT
ATOM      1  C   UNL     1      31.194  11.522  18.283  1.00  0.00     0.014 C 
ENDROOT
BRANCH   1   2
ATOM      2  C   UNL     1      29.735  11.728  18.269  1.00  0.00     0.030 C 
BRANCH   2   3
ATOM      3  C   UNL     1      29.296  13.140  18.128  1.00  0.00    -0.044 A 
ATOM      4  C   UNL     1      28.496  15.697  17.783  1.00  0.00     0.012 A 
ATOM      5  C   UNL     1      28.270  15.079  18.991  1.00  0.00     0.001 A 
ATOM      6  C   UNL     1      29.123  15.056  16.729  1.00  0.00     0.016 A 
ATOM      7  C   UNL     1      28.675  13.767  19.184  1.00  0.00     0.004 A 
ATOM      8  C   UNL     1      29.529  13.752  16.907  1.00  0.00     0.016 A 
BRANCH   6   9
ATOM      9  C   UNL     1      29.333  15.771  15.470  1.00  0.00     0.122 C 
ATOM     10  N   UNL     1      29.884  15.140  14.323  1.00  0.00    -0.384 N 
ATOM     11  N   UNL     1      29.009  17.011  15.394  1.00  0.00    -0.284 NA
ATOM     12  H   UNL     1      30.683  15.559  13.805  1.00  0.00     0.158 HD
ATOM     13  H   UNL     1      29.441  14.231  14.030  1.00  0.00     0.158 HD
ATOM     14  H   UNL     1      29.155  17.525  14.507  1.00  0.00     0.189 HD
ENDBRANCH   6   9
ENDBRANCH   2   3
BRANCH   2  15
ATOM     15  C   UNL     1      29.097  11.201  19.560  1.00  0.00     0.131 C 
BRANCH  15  16
ATOM     16  C   UNL     1      28.173  10.078  19.349  1.00  0.00     0.306 C 
ATOM     17  O   UNL     1      28.349   9.113  18.584  1.00  0.00    -0.252 OA
BRANCH  16  18
ATOM     18  O   UNL     1      26.959  10.051  20.066  1.00  0.00    -0.469 OA
ATOM     19  C   UNL     1      25.985  11.042  19.884  1.00  0.00     0.282 C 
ENDBRANCH  16  18
ENDBRANCH  15  16
ENDBRANCH   2  15
ENDBRANCH   1   2
BRANCH   1  20
ATOM     20  C   UNL     1      31.702  10.154  18.030  1.00  0.00     0.036 C 
BRANCH  20  21
ATOM     21  C   UNL     1      33.124  10.039  17.682  1.00  0.00    -0.048 A 
ATOM     22  C   UNL     1      34.126  10.159  18.657  1.00  0.00     0.004 A 
ATOM     23  C   UNL     1      33.558   9.803  16.404  1.00  0.00     0.004 A 
ATOM     24  C   UNL     1      35.462  10.045  18.349  1.00  0.00     0.012 A 
ATOM     25  C   UNL     1      34.924   9.687  16.093  1.00  0.00     0.012 A 
ATOM     26  C   UNL     1      35.894   9.807  17.061  1.00  0.00     0.016 A 
BRANCH  26  27
ATOM     27  C   UNL     1      37.317   9.694  16.775  1.00  0.00     0.122 C 
ATOM     28  N   UNL     1      37.743   8.619  15.960  1.00  0.00    -0.384 N 
ATOM     29  N   UNL     1      38.189  10.514  17.220  1.00  0.00    -0.284 NA
ATOM     30  H   UNL     1      37.323   8.500  15.000  1.00  0.00     0.158 HD
ATOM     31  H   UNL     1      38.465   7.943  16.292  1.00  0.00     0.158 HD
ATOM     32  H   UNL     1      39.188  10.377  16.977  1.00  0.00     0.189 HD
ENDBRANCH  26  27
ENDBRANCH  20  21
ENDBRANCH   1  20
TORSDOF 9
ENDMDL
MODEL 2
REMARK VINA RESULT:    -7.718      4.353      7.905
REMARK INTER + INTRA:         -13.045
REMARK INTER:                 -11.904
REMARK INTRA:                  -1.141
REMARK UNBOUND:                -1.266
REMARK SMILES COC(=O)C[C@H](CCc1ccc(C(=N)N)cc1)c1cccc(C(=N)N)c1
REMARK SMILES IDX 7 1 6 2 18 3 21 4 20 5 22 6 19 7 26 8 23 9 25 10 24 11 5 15
REMARK SMILES IDX 3 16 4 17 2 18 1 19 8 20 9 21 10 22 17 23 11 24 16 25 12 26
REMARK SMILES IDX 13 27 15 28 14 29
REMARK H PARENT 25 12 25 13 24 14 15 30 15 31 14 32
REMARK Flexibility Score: inf
ROOT
ATOM      1  C   UNL     1      27.235  10.872  18.050  1.00  0.00     0.014 C 
ENDROOT
BRANCH   1   2
ATOM      2  C   UNL     1      28.546  11.536  18.158  1.00  0.00     0.030 C 
BRANCH   2   3
ATOM      3  C   UNL     1      28.508  13.021  18.120  1.00  0.00    -0.044 A 
ATOM      4  C   UNL     1      28.438  15.717  17.962  1.00  0.00     0.012 A 
ATOM      5  C   UNL     1      27.994  15.098  19.109  1.00  0.00     0.001 A 
ATOM      6  C   UNL     1      28.923  15.007  16.878  1.00  0.00     0.016 A 
ATOM      7  C   UNL     1      28.023  13.715  19.205  1.00  0.00     0.004 A 
ATOM      8  C   UNL     1      28.957  13.632  16.961  1.00  0.00     0.016 A 
BRANCH   6   9
ATOM      9  C   UNL     1      29.380  15.726  15.689  1.00  0.00     0.122 C 
ATOM     10  N   UNL     1      30.233  15.129  14.724  1.00  0.00    -0.384 N 
ATOM     11  N   UNL     1      28.999  16.938  15.506  1.00  0.00    -0.284 NA
ATOM     12  H   UNL     1      31.102  15.601  14.402  1.00  0.00     0.158 HD
ATOM     13  H   UNL     1      29.939  14.187  14.356  1.00  0.00     0.158 HD
ATOM     14  H   UNL     1      29.317  17.454  14.668  1.00  0.00     0.189 HD
ENDBRANCH   6   9
ENDBRANCH   2   3
BRANCH   2  15
ATOM     15  C   UNL     1      29.476  11.096  17.021  1.00  0.00     0.131 C 
BRANCH  15  16
ATOM     16  C   UNL     1      30.724  10.474  17.484  1.00  0.00     0.306 C 
ATOM     17  O   UNL     1      30.883   9.838  18.542  1.00  0.00    -0.252 OA
BRANCH  16  18
ATOM     18  O   UNL     1      31.878  10.584  16.680  1.00  0.00    -0.469 OA
ATOM     19  C   UNL     1      32.787   9.523  16.565  1.00  0.00     0.282 C 
ENDBRANCH  16  18
ENDBRANCH  15  16
ENDBRANCH   2  15
ENDBRANCH   1   2
BRANCH   1  20
ATOM     20  C   UNL     1      27.050   9.879  16.966  1.00  0.00     0.036 C 
BRANCH  20  21
ATOM     21  C   UNL     1      25.731   9.237  16.887  1.00  0.00    -0.048 A 
ATOM     22  C   UNL     1      25.113   8.698  18.026  1.00  0.00     0.004 A 
ATOM     23  C   UNL     1      25.027   9.132  15.717  1.00  0.00     0.004 A 
ATOM     24  C   UNL     1      23.874   8.102  17.971  1.00  0.00     0.012 A 
ATOM     25  C   UNL     1      23.762   8.521  15.664  1.00  0.00     0.012 A 
ATOM     26  C   UNL     1      23.169   7.999  16.790  1.00  0.00     0.016 A 
BRANCH  26  27
ATOM     27  C   UNL     1      21.861   7.359  16.772  1.00  0.00     0.122 C 
ATOM     28  N   UNL     1      21.107   7.431  15.578  1.00  0.00    -0.384 N 
ATOM     29  N   UNL     1      21.368   6.740  17.776  1.00  0.00    -0.284 NA
ATOM     30  H   UNL     1      21.530   7.077  14.679  1.00  0.00     0.158 HD
ATOM     31  H   UNL     1      20.142   7.828  15.570  1.00  0.00     0.158 HD
ATOM     32  H   UNL     1      20.431   6.306  17.696  1.00  0.00     0.189 HD
ENDBRANCH  26  27
ENDBRANCH  20  21
ENDBRANCH   1  20
TORSDOF 9
ENDMDL
MODEL 3
REMARK VINA RESULT:    -7.605      0.929      1.750
REMARK INTER + INTRA:         -12.873
REMARK INTER:                 -11.753
REMARK INTRA:                  -1.119
REMARK UNBOUND:                -1.266
REMARK SMILES COC(=O)C[C@H](CCc1ccc(C(=N)N)cc1)c1cccc(C(=N)N)c1
REMARK SMILES IDX 7 1 6 2 18 3 21 4 20 5 22 6 19 7 26 8 23 9 25 10 24 11 5 15
REMARK SMILES IDX 3 16 4 17 2 18 1 19 8 20 9 21 10 22 17 23 11 24 16 25 12 26
REMARK SMILES IDX 13 27 15 28 14 29
REMARK H PARENT 25 12 25 13 24 14 15 30 15 31 14 32
REMARK Flexibility Score: inf
ROOT
ATOM      1  C   UNL     1      31.112  11.283  18.379  1.00  0.00     0.014 C 
ENDROOT
BRANCH   1   2
ATOM      2  C   UNL     1      29.702  11.534  18.029  1.00  0.00     0.030 C 
BRANCH   2   3
ATOM      3  C   UNL     1      29.299  12.963  18.012  1.00  0.00    -0.044 A 
ATOM      4  C   UNL     1      28.558  15.558  17.892  1.00  0.00     0.012 A 
ATOM      5  C   UNL     1      28.395  14.866  19.070  1.00  0.00     0.001 A 
ATOM      6  C   UNL     1      29.091  14.973  16.757  1.00  0.00     0.016 A 
ATOM      7  C   UNL     1      28.771  13.533  19.148  1.00  0.00     0.004 A 
ATOM      8  C   UNL     1      29.468  13.650  16.821  1.00  0.00     0.016 A 
BRANCH   6   9
ATOM      9  C   UNL     1      29.238  15.766  15.536  1.00  0.00     0.122 C 
ATOM     10  N   UNL     1      28.567  17.003  15.351  1.00  0.00    -0.384 N 
ATOM     11  N   UNL     1      29.999  15.333  14.598  1.00  0.00    -0.284 NA
ATOM     12  H   UNL     1      28.012  17.197  14.493  1.00  0.00     0.158 HD
ATOM     13  H   UNL     1      28.662  17.709  16.128  1.00  0.00     0.158 HD
ATOM     14  H   UNL     1      30.108  15.886  13.730  1.00  0.00     0.189 HD
ENDBRANCH   6   9
ENDBRANCH   2   3
BRANCH   2  15
ATOM     15  C   UNL     1      28.762  10.829  19.014  1.00  0.00     0.131 C 
BRANCH  15  16
ATOM     16  C   UNL     1      27.633  10.145  18.369  1.00  0.00     0.306 C 
ATOM     17  O   UNL     1      26.424  10.360  18.576  1.00  0.00    -0.252 OA
BRANCH  16  18
ATOM     18  O   UNL     1      27.899   9.141  17.415  1.00  0.00    -0.469 OA
ATOM     19  C   UNL     1      28.062   7.802  17.795  1.00  0.00     0.282 C 
ENDBRANCH  16  18
ENDBRANCH  15  16
ENDBRANCH   2  15
ENDBRANCH   1   2
BRANCH   1  20
ATOM     20  C   UNL     1      31.750  10.058  17.844  1.00  0.00     0.036 C 
BRANCH  20  21
ATOM     21  C   UNL     1      33.218  10.019  17.875  1.00  0.00    -0.048 A 
ATOM     22  C   UNL     1      33.975  10.134  16.699  1.00  0.00     0.004 A 
ATOM     23  C   UNL     1      33.932   9.879  19.036  1.00  0.00     0.004 A 
ATOM     24  C   UNL     1      35.351  10.109  16.712  1.00  0.00     0.012 A 
ATOM     25  C   UNL     1      35.337   9.853  19.045  1.00  0.00     0.012 A 
ATOM     26  C   UNL     1      36.065   9.968  17.884  1.00  0.00     0.016 A 
BRANCH  26  27
ATOM     27  C   UNL     1      37.520   9.945  17.856  1.00  0.00     0.122 C 
ATOM     28  N   UNL     1      38.188   9.179  18.840  1.00  0.00    -0.384 N 
ATOM     29  N   UNL     1      38.216  10.577  16.991  1.00  0.00    -0.284 NA
ATOM     30  H   UNL     1      37.960   8.154  18.938  1.00  0.00     0.158 HD
ATOM     31  H   UNL     1      38.899   9.609  19.470  1.00  0.00     0.158 HD
ATOM     32  H   UNL     1      39.250  10.518  17.027  1.00  0.00     0.189 HD
ENDBRANCH  26  27
ENDBRANCH  20  21
ENDBRANCH   1  20
TORSDOF 9
ENDMDL
MODEL 4
REMARK VINA RESULT:    -7.581      4.018      7.670
REMARK INTER + INTRA:         -12.836
REMARK INTER:                 -11.739
REMARK INTRA:                  -1.096
REMARK UNBOUND:                -1.266
REMARK SMILES COC(=O)C[C@H](CCc1ccc(C(=N)N)cc1)c1cccc(C(=N)N)c1
REMARK SMILES IDX 7 1 6 2 18 3 21 4 20 5 22 6 19 7 26 8 23 9 25 10 24 11 5 15
REMARK SMILES IDX 3 16 4 17 2 18 1 19 8 20 9 21 10 22 17 23 11 24 16 25 12 26
REMARK SMILES IDX 13 27 15 28 14 29
REMARK H PARENT 25 12 25 13 24 14 15 30 15 31 14 32
REMARK Flexibility Score: inf
ROOT
ATOM      1  C   UNL     1      28.368  10.878  18.940  1.00  0.00     0.014 C 
ENDROOT
BRANCH   1   2
ATOM      2  C   UNL     1      29.456  11.732  18.432  1.00  0.00     0.030 C 
BRANCH   2   3
ATOM      3  C   UNL     1      29.114  13.168  18.275  1.00  0.00    -0.044 A 
ATOM      4  C   UNL     1      28.490  15.770  17.901  1.00  0.00     0.012 A 
ATOM      5  C   UNL     1      28.190  15.173  19.103  1.00  0.00     0.001 A 
ATOM      6  C   UNL     1      29.104  15.085  16.866  1.00  0.00     0.016 A 
ATOM      7  C   UNL     1      28.504  13.838  19.311  1.00  0.00     0.004 A 
ATOM      8  C   UNL     1      29.421  13.759  17.060  1.00  0.00     0.016 A 
BRANCH   6   9
ATOM      9  C   UNL     1      29.396  15.780  15.612  1.00  0.00     0.122 C 
ATOM     10  N   UNL     1      30.152  15.179  14.572  1.00  0.00    -0.384 N 
ATOM     11  N   UNL     1      28.955  16.973  15.441  1.00  0.00    -0.284 NA
ATOM     12  H   UNL     1      30.961  15.667  14.137  1.00  0.00     0.158 HD
ATOM     13  H   UNL     1      29.849  14.217  14.267  1.00  0.00     0.158 HD
ATOM     14  H   UNL     1      29.157  17.472  14.557  1.00  0.00     0.189 HD
ENDBRANCH   6   9
ENDBRANCH   2   3
BRANCH   2  15
ATOM     15  C   UNL     1      29.935  11.246  17.058  1.00  0.00     0.131 C 
BRANCH  15  16
ATOM     16  C   UNL     1      31.226  10.545  17.094  1.00  0.00     0.306 C 
ATOM     17  O   UNL     1      31.665   9.765  16.229  1.00  0.00    -0.252 OA
BRANCH  16  18
ATOM     18  O   UNL     1      32.081  10.748  18.197  1.00  0.00    -0.469 OA
ATOM     19  C   UNL     1      33.349  10.154  18.253  1.00  0.00     0.282 C 
ENDBRANCH  16  18
ENDBRANCH  15  16
ENDBRANCH   2  15
ENDBRANCH   1   2
BRANCH   1  20
ATOM     20  C   UNL     1      27.021  11.048  18.346  1.00  0.00     0.036 C 
BRANCH  20  21
ATOM     21  C   UNL     1      25.953  10.203  18.896  1.00  0.00    -0.048 A 
ATOM     22  C   UNL     1      25.285  10.551  20.080  1.00  0.00     0.004 A 
ATOM     23  C   UNL     1      25.541   9.043  18.294  1.00  0.00     0.004 A 
ATOM     24  C   UNL     1      24.277   9.775  20.604  1.00  0.00     0.012 A 
ATOM     25  C   UNL     1      24.510   8.254  18.833  1.00  0.00     0.012 A 
ATOM     26  C   UNL     1      23.865   8.609  19.994  1.00  0.00     0.016 A 
BRANCH  26  27
ATOM     27  C   UNL     1      22.795   7.814  20.580  1.00  0.00     0.122 C 
ATOM     28  N   UNL     1      22.093   6.925  19.734  1.00  0.00    -0.384 N 
ATOM     29  N   UNL     1      22.465   7.882  21.813  1.00  0.00    -0.284 NA
ATOM     30  H   UNL     1      22.629   6.195  19.194  1.00  0.00     0.158 HD
ATOM     31  H   UNL     1      21.055   6.979  19.634  1.00  0.00     0.158 HD
ATOM     32  H   UNL     1      21.693   7.288  22.167  1.00  0.00     0.189 HD
ENDBRANCH  26  27
ENDBRANCH  20  21
ENDBRANCH   1  20
TORSDOF 9
ENDMDL
MODEL 5
REMARK VINA RESULT:    -7.505      4.648      7.418
REMARK INTER + INTRA:         -12.720
REMARK INTER:                 -11.227
REMARK INTRA:                  -1.494
REMARK UNBOUND:                -1.266
REMARK SMILES COC(=O)C[C@H](CCc1ccc(C(=N)N)cc1)c1cccc(C(=N)N)c1
REMARK SMILES IDX 7 1 6 2 18 3 21 4 20 5 22 6 19 7 26 8 23 9 25 10 24 11 5 15
REMARK SMILES IDX 3 16 4 17 2 18 1 19 8 20 9 21 10 22 17 23 11 24 16 25 12 26
REMARK SMILES IDX 13 27 15 28 14 29
REMARK H PARENT 25 12 25 13 24 14 15 30 15 31 14 32
REMARK Flexibility Score: inf
ROOT
ATOM      1  C   UNL     1      29.044  11.168  19.987  1.00  0.00     0.014 C 
ENDROOT
BRANCH   1   2
ATOM      2  C   UNL     1      28.039  10.263  20.574  1.00  0.00     0.030 C 
BRANCH   2   3
ATOM      3  C   UNL     1      26.962   9.829  19.648  1.00  0.00    -0.044 A 
ATOM      4  C   UNL     1      24.945   9.045  18.030  1.00  0.00     0.012 A 
ATOM      5  C   UNL     1      26.075   9.603  17.475  1.00  0.00     0.001 A 
ATOM      6  C   UNL     1      24.801   8.868  19.395  1.00  0.00     0.016 A 
ATOM      7  C   UNL     1      27.118  10.010  18.292  1.00  0.00     0.004 A 
ATOM      8  C   UNL     1      25.830   9.269  20.217  1.00  0.00     0.016 A 
BRANCH   6   9
ATOM      9  C   UNL     1      23.574   8.268  19.920  1.00  0.00     0.122 C 
ATOM     10  N   UNL     1      23.141   8.477  21.256  1.00  0.00    -0.384 N 
ATOM     11  N   UNL     1      22.862   7.527  19.152  1.00  0.00    -0.284 NA
ATOM     12  H   UNL     1      22.882   7.682  21.873  1.00  0.00     0.158 HD
ATOM     13  H   UNL     1      23.097   9.478  21.583  1.00  0.00     0.158 HD
ATOM     14  H   UNL     1      21.993   7.098  19.515  1.00  0.00     0.189 HD
ENDBRANCH   6   9
ENDBRANCH   2   3
BRANCH   2  15
ATOM     15  C   UNL     1      27.343  10.922  21.771  1.00  0.00     0.131 C 
BRANCH  15  16
ATOM     16  C   UNL     1      28.000  10.657  23.058  1.00  0.00     0.306 C 
ATOM     17  O   UNL     1      28.520   9.583  23.413  1.00  0.00    -0.252 OA
BRANCH  16  18
ATOM     18  O   UNL     1      28.071  11.692  24.013  1.00  0.00    -0.469 OA
ATOM     19  C   UNL     1      29.277  12.012  24.650  1.00  0.00     0.282 C 
ENDBRANCH  16  18
ENDBRANCH  15  16
ENDBRANCH   2  15
ENDBRANCH   1   2
BRANCH   1  20
ATOM     20  C   UNL     1      28.869  12.624  20.195  1.00  0.00     0.036 C 
BRANCH  20  21
ATOM     21  C   UNL     1      28.961  13.471  18.999  1.00  0.00    -0.048 A 
ATOM     22  C   UNL     1      29.547  12.998  17.814  1.00  0.00     0.004 A 
ATOM     23  C   UNL     1      28.482  14.754  18.959  1.00  0.00     0.004 A 
ATOM     24  C   UNL     1      29.633  13.774  16.682  1.00  0.00     0.012 A 
ATOM     25  C   UNL     1      28.572  15.544  17.800  1.00  0.00     0.012 A 
ATOM     26  C   UNL     1      29.148  15.065  16.647  1.00  0.00     0.016 A 
BRANCH  26  27
ATOM     27  C   UNL     1      29.259  15.856  15.429  1.00  0.00     0.122 C 
ATOM     28  N   UNL     1      29.766  15.221  14.272  1.00  0.00    -0.384 N 
ATOM     29  N   UNL     1      28.921  17.086  15.359  1.00  0.00    -0.284 NA
ATOM     30  H   UNL     1      29.297  14.346  13.916  1.00  0.00     0.158 HD
ATOM     31  H   UNL     1      30.596  15.601  13.767  1.00  0.00     0.158 HD
ATOM     32  H   UNL     1      29.025  17.593  14.460  1.00  0.00     0.189 HD
ENDBRANCH  26  27
ENDBRANCH  20  21
ENDBRANCH   1  20
TORSDOF 9
ENDMDL
MODEL 6
REMARK VINA RESULT:    -7.195      4.745      6.893
REMARK INTER + INTRA:         -12.247
REMARK INTER:                 -10.763
REMARK INTRA:                  -1.484
REMARK UNBOUND:                -1.266
REMARK SMILES COC(=O)C[C@H](CCc1ccc(C(=N)N)cc1)c1cccc(C(=N)N)c1
REMARK SMILES IDX 7 1 6 2 18 3 21 4 20 5 22 6 19 7 26 8 23 9 25 10 24 11 5 15
REMARK SMILES IDX 3 16 4 17 2 18 1 19 8 20 9 21 10 22 17 23 11 24 16 25 12 26
REMARK SMILES IDX 13 27 15 28 14 29
REMARK H PARENT 25 12 25 13 24 14 15 30 15 31 14 32
REMARK Flexibility Score: inf
ROOT
ATOM      1  C   UNL     1      28.847  11.215  20.231  1.00  0.00     0.014 C 
ENDROOT
BRANCH   1   2
ATOM      2  C   UNL     1      28.033  10.164  20.867  1.00  0.00     0.030 C 
BRANCH   2   3
ATOM      3  C   UNL     1      26.816   9.765  20.116  1.00  0.00    -0.044 A 
ATOM      4  C   UNL     1      24.653   9.002  18.687  1.00  0.00     0.012 A 
ATOM      5  C   UNL     1      24.518   9.241  20.036  1.00  0.00     0.001 A 
ATOM      6  C   UNL     1      25.862   9.138  18.028  1.00  0.00     0.016 A 
ATOM      7  C   UNL     1      25.619   9.634  20.782  1.00  0.00     0.004 A 
ATOM      8  C   UNL     1      26.963   9.526  18.759  1.00  0.00     0.016 A 
BRANCH   6   9
ATOM      9  C   UNL     1      25.937   8.868  16.592  1.00  0.00     0.122 C 
ATOM     10  N   UNL     1      25.940   7.548  16.069  1.00  0.00    -0.384 N 
ATOM     11  N   UNL     1      26.002   9.854  15.774  1.00  0.00    -0.284 NA
ATOM     12  H   UNL     1      26.660   7.237  15.385  1.00  0.00     0.158 HD
ATOM     13  H   UNL     1      25.178   6.907  16.410  1.00  0.00     0.158 HD
ATOM     14  H   UNL     1      26.056   9.673  14.756  1.00  0.00     0.189 HD
ENDBRANCH   6   9
ENDBRANCH   2   3
BRANCH   2  15
ATOM     15  C   UNL     1      27.561  10.605  22.257  1.00  0.00     0.131 C 
BRANCH  15  16
ATOM     16  C   UNL     1      28.503  10.277  23.336  1.00  0.00     0.306 C 
ATOM     17  O   UNL     1      29.097   9.195  23.492  1.00  0.00    -0.252 OA
BRANCH  16  18
ATOM     18  O   UNL     1      28.792  11.256  24.309  1.00  0.00    -0.469 OA
ATOM     19  C   UNL     1      27.808  11.708  25.200  1.00  0.00     0.282 C 
ENDBRANCH  16  18
ENDBRANCH  15  16
ENDBRANCH   2  15
ENDBRANCH   1   2
BRANCH   1  20
ATOM     20  C   UNL     1      28.301  12.592  20.206  1.00  0.00     0.036 C 
BRANCH  20  21
ATOM     21  C   UNL     1      28.575  13.380  18.997  1.00  0.00    -0.048 A 
ATOM     22  C   UNL     1      28.314  14.759  18.951  1.00  0.00     0.004 A 
ATOM     23  C   UNL     1      29.102  12.832  17.857  1.00  0.00     0.004 A 
ATOM     24  C   UNL     1      28.572  15.514  17.830  1.00  0.00     0.012 A 
ATOM     25  C   UNL     1      29.364  13.607  16.714  1.00  0.00     0.012 A 
ATOM     26  C   UNL     1      29.103  14.957  16.685  1.00  0.00     0.016 A 
BRANCH  26  27
ATOM     27  C   UNL     1      29.362  15.789  15.518  1.00  0.00     0.122 C 
ATOM     28  N   UNL     1      30.088  15.218  14.448  1.00  0.00    -0.384 N 
ATOM     29  N   UNL     1      28.965  16.999  15.418  1.00  0.00    -0.284 NA
ATOM     30  H   UNL     1      29.737  14.329  14.002  1.00  0.00     0.158 HD
ATOM     31  H   UNL     1      30.964  15.659  14.092  1.00  0.00     0.158 HD
ATOM     32  H   UNL     1      29.182  17.536  14.558  1.00  0.00     0.189 HD
ENDBRANCH  26  27
ENDBRANCH  20  21
ENDBRANCH   1  20
TORSDOF 9
ENDMDL
MODEL 7
REMARK VINA RESULT:    -7.117      6.885     10.682
REMARK INTER + INTRA:         -12.128
REMARK INTER:                 -10.411
REMARK INTRA:                  -1.717
REMARK UNBOUND:                -1.266
REMARK SMILES COC(=O)C[C@H](CCc1ccc(C(=N)N)cc1)c1cccc(C(=N)N)c1
REMARK SMILES IDX 7 1 6 2 18 3 21 4 20 5 22 6 19 7 26 8 23 9 25 10 24 11 5 15
REMARK SMILES IDX 3 16 4 17 2 18 1 19 8 20 9 21 10 22 17 23 11 24 16 25 12 26
REMARK SMILES IDX 13 27 15 28 14 29
REMARK H PARENT 25 12 25 13 24 14 15 30 15 31 14 32
REMARK Flexibility Score: inf
ROOT
ATOM      1  C   UNL     1      26.015   7.978  16.587  1.00  0.00     0.014 C 
ENDROOT
BRANCH   1   2
ATOM      2  C   UNL     1      26.299   8.800  17.776  1.00  0.00     0.030 C 
BRANCH   2   3
ATOM      3  C   UNL     1      25.245   8.785  18.822  1.00  0.00    -0.044 A 
ATOM      4  C   UNL     1      23.311   8.673  20.706  1.00  0.00     0.012 A 
ATOM      5  C   UNL     1      24.294   9.630  20.807  1.00  0.00     0.001 A 
ATOM      6  C   UNL     1      23.273   7.758  19.668  1.00  0.00     0.016 A 
ATOM      7  C   UNL     1      25.294   9.701  19.849  1.00  0.00     0.004 A 
ATOM      8  C   UNL     1      24.260   7.817  18.710  1.00  0.00     0.016 A 
BRANCH   6   9
ATOM      9  C   UNL     1      22.199   6.766  19.619  1.00  0.00     0.122 C 
ATOM     10  N   UNL     1      21.884   5.934  20.726  1.00  0.00    -0.384 N 
ATOM     11  N   UNL     1      21.515   6.638  18.541  1.00  0.00    -0.284 NA
ATOM     12  H   UNL     1      21.800   4.903  20.624  1.00  0.00     0.158 HD
ATOM     13  H   UNL     1      21.743   6.419  21.651  1.00  0.00     0.158 HD
ATOM     14  H   UNL     1      20.754   5.938  18.496  1.00  0.00     0.189 HD
ENDBRANCH   6   9
ENDBRANCH   2   3
BRANCH   2  15
ATOM     15  C   UNL     1      26.506  10.269  17.388  1.00  0.00     0.131 C 
BRANCH  15  16
ATOM     16  C   UNL     1      27.903  10.715  17.480  1.00  0.00     0.306 C 
ATOM     17  O   UNL     1      28.848  10.081  17.984  1.00  0.00    -0.252 OA
BRANCH  16  18
ATOM     18  O   UNL     1      28.249  11.978  16.958  1.00  0.00    -0.469 OA
ATOM     19  C   UNL     1      29.570  12.447  17.004  1.00  0.00     0.282 C 
ENDBRANCH  16  18
ENDBRANCH  15  16
ENDBRANCH   2  15
ENDBRANCH   1   2
BRANCH   1  20
ATOM     20  C   UNL     1      25.652   8.678  15.333  1.00  0.00     0.036 C 
BRANCH  20  21
ATOM     21  C   UNL     1      24.250   8.571  14.908  1.00  0.00    -0.048 A 
ATOM     22  C   UNL     1      23.901   7.963  13.692  1.00  0.00     0.004 A 
ATOM     23  C   UNL     1      23.208   9.042  15.662  1.00  0.00     0.004 A 
ATOM     24  C   UNL     1      22.592   7.846  13.283  1.00  0.00     0.012 A 
ATOM     25  C   UNL     1      21.872   8.922  15.241  1.00  0.00     0.012 A 
ATOM     26  C   UNL     1      21.547   8.322  14.047  1.00  0.00     0.016 A 
BRANCH  26  27
ATOM     27  C   UNL     1      20.175   8.181  13.580  1.00  0.00     0.122 C 
ATOM     28  N   UNL     1      19.567   6.909  13.690  1.00  0.00    -0.384 N 
ATOM     29  N   UNL     1      19.501   9.145  13.080  1.00  0.00    -0.284 NA
ATOM     30  H   UNL     1      19.520   6.440  14.633  1.00  0.00     0.158 HD
ATOM     31  H   UNL     1      19.165   6.428  12.856  1.00  0.00     0.158 HD
ATOM     32  H   UNL     1      18.527   8.978  12.767  1.00  0.00     0.189 HD
ENDBRANCH  26  27
ENDBRANCH  20  21
ENDBRANCH   1  20
TORSDOF 9
ENDMDL
MODEL 8
REMARK VINA RESULT:    -6.976      4.743      7.925
REMARK INTER + INTRA:         -11.913
REMARK INTER:                 -10.504
REMARK INTRA:                  -1.409
REMARK UNBOUND:                -1.266
REMARK SMILES COC(=O)C[C@H](CCc1ccc(C(=N)N)cc1)c1cccc(C(=N)N)c1
REMARK SMILES IDX 7 1 6 2 18 3 21 4 20 5 22 6 19 7 26 8 23 9 25 10 24 11 5 15
REMARK SMILES IDX 3 16 4 17 2 18 1 19 8 20 9 21 10 22 17 23 11 24 16 25 12 26
REMARK SMILES IDX 13 27 15 28 14 29
REMARK H PARENT 25 12 25 13 24 14 15 30 15 31 14 32
REMARK Flexibility Score: inf
ROOT
ATOM      1  C   UNL     1      25.809  10.753  19.753  1.00  0.00     0.014 C 
ENDROOT
BRANCH   1   2
ATOM      2  C   UNL     1      25.336   9.362  19.641  1.00  0.00     0.030 C 
BRANCH   2   3
ATOM      3  C   UNL     1      24.813   8.977  18.306  1.00  0.00    -0.044 A 
ATOM      4  C   UNL     1      23.783   8.260  15.913  1.00  0.00     0.012 A 
ATOM      5  C   UNL     1      24.886   9.082  15.951  1.00  0.00     0.001 A 
ATOM      6  C   UNL     1      23.175   7.782  17.061  1.00  0.00     0.016 A 
ATOM      7  C   UNL     1      25.426   9.458  17.171  1.00  0.00     0.004 A 
ATOM      8  C   UNL     1      23.702   8.149  18.279  1.00  0.00     0.016 A 
BRANCH   6   9
ATOM      9  C   UNL     1      22.005   6.911  16.951  1.00  0.00     0.122 C 
ATOM     10  N   UNL     1      21.680   6.227  15.749  1.00  0.00    -0.384 N 
ATOM     11  N   UNL     1      21.243   6.756  17.972  1.00  0.00    -0.284 NA
ATOM     12  H   UNL     1      20.726   6.276  15.338  1.00  0.00     0.158 HD
ATOM     13  H   UNL     1      22.455   5.672  15.301  1.00  0.00     0.158 HD
ATOM     14  H   UNL     1      20.412   6.142  17.903  1.00  0.00     0.189 HD
ENDBRANCH   6   9
ENDBRANCH   2   3
BRANCH   2  15
ATOM     15  C   UNL     1      24.210   9.086  20.645  1.00  0.00     0.131 C 
BRANCH  15  16
ATOM     16  C   UNL     1      24.650   8.359  21.844  1.00  0.00     0.306 C 
ATOM     17  O   UNL     1      24.281   7.224  22.195  1.00  0.00    -0.252 OA
BRANCH  16  18
ATOM     18  O   UNL     1      25.582   8.972  22.707  1.00  0.00    -0.469 OA
ATOM     19  C   UNL     1      26.844   8.406  22.934  1.00  0.00     0.282 C 
ENDBRANCH  16  18
ENDBRANCH  15  16
ENDBRANCH   2  15
ENDBRANCH   1   2
BRANCH   1  20
ATOM     20  C   UNL     1      27.271  10.984  19.817  1.00  0.00     0.036 C 
BRANCH  20  21
ATOM     21  C   UNL     1      27.808  12.020  18.926  1.00  0.00    -0.048 A 
ATOM     22  C   UNL     1      27.754  13.379  19.272  1.00  0.00     0.004 A 
ATOM     23  C   UNL     1      28.396  11.732  17.722  1.00  0.00     0.004 A 
ATOM     24  C   UNL     1      28.261  14.362  18.454  1.00  0.00     0.012 A 
ATOM     25  C   UNL     1      28.912  12.739  16.888  1.00  0.00     0.012 A 
ATOM     26  C   UNL     1      28.852  14.066  17.243  1.00  0.00     0.016 A 
BRANCH  26  27
ATOM     27  C   UNL     1      29.376  15.134  16.403  1.00  0.00     0.122 C 
ATOM     28  N   UNL     1      28.916  16.450  16.643  1.00  0.00    -0.384 N 
ATOM     29  N   UNL     1      30.226  14.939  15.469  1.00  0.00    -0.284 NA
ATOM     30  H   UNL     1      29.021  16.865  17.607  1.00  0.00     0.158 HD
ATOM     31  H   UNL     1      28.474  17.015  15.886  1.00  0.00     0.158 HD
ATOM     32  H   UNL     1      30.559  15.745  14.908  1.00  0.00     0.189 HD
ENDBRANCH  26  27
ENDBRANCH  20  21
ENDBRANCH   1  20
TORSDOF 9
ENDMDL
MODEL 9
REMARK VINA RESULT:    -6.910      5.286      8.963
REMARK INTER + INTRA:         -11.812
REMARK INTER:                 -10.545
REMARK INTRA:                  -1.266
REMARK UNBOUND:                -1.266
REMARK SMILES COC(=O)C[C@H](CCc1ccc(C(=N)N)cc1)c1cccc(C(=N)N)c1
REMARK SMILES IDX 7 1 6 2 18 3 21 4 20 5 22 6 19 7 26 8 23 9 25 10 24 11 5 15
REMARK SMILES IDX 3 16 4 17 2 18 1 19 8 20 9 21 10 22 17 23 11 24 16 25 12 26
REMARK SMILES IDX 13 27 15 28 14 29
REMARK H PARENT 25 12 25 13 24 14 15 30 15 31 14 32
REMARK Flexibility Score: inf
ROOT
ATOM      1  C   UNL     1      26.183   9.704  16.554  1.00  0.00     0.014 C 
ENDROOT
BRANCH   1   2
ATOM      2  C   UNL     1      26.329  10.328  17.881  1.00  0.00     0.030 C 
BRANCH   2   3
ATOM      3  C   UNL     1      27.617  11.031  18.111  1.00  0.00    -0.044 A 
ATOM      4  C   UNL     1      29.915  12.378  18.566  1.00  0.00     0.012 A 
ATOM      5  C   UNL     1      29.957  11.013  18.398  1.00  0.00     0.001 A 
ATOM      6  C   UNL     1      28.732  13.094  18.511  1.00  0.00     0.016 A 
ATOM      7  C   UNL     1      28.786  10.308  18.163  1.00  0.00     0.004 A 
ATOM      8  C   UNL     1      27.562  12.405  18.280  1.00  0.00     0.016 A 
BRANCH   6   9
ATOM      9  C   UNL     1      28.756  14.545  18.699  1.00  0.00     0.122 C 
ATOM     10  N   UNL     1      29.027  15.443  17.633  1.00  0.00    -0.384 N 
ATOM     11  N   UNL     1      28.523  15.028  19.866  1.00  0.00    -0.284 NA
ATOM     12  H   UNL     1      29.744  16.191  17.723  1.00  0.00     0.158 HD
ATOM     13  H   UNL     1      28.466  15.308  16.753  1.00  0.00     0.158 HD
ATOM     14  H   UNL     1      28.539  16.053  20.008  1.00  0.00     0.189 HD
ENDBRANCH   6   9
ENDBRANCH   2   3
BRANCH   2  15
ATOM     15  C   UNL     1      26.202   9.280  18.994  1.00  0.00     0.131 C 
BRANCH  15  16
ATOM     16  C   UNL     1      25.575   9.791  20.220  1.00  0.00     0.306 C 
ATOM     17  O   UNL     1      24.605  10.569  20.284  1.00  0.00    -0.252 OA
BRANCH  16  18
ATOM     18  O   UNL     1      26.090   9.385  21.469  1.00  0.00    -0.469 OA
ATOM     19  C   UNL     1      27.432   9.007  21.613  1.00  0.00     0.282 C 
ENDBRANCH  16  18
ENDBRANCH  15  16
ENDBRANCH   2  15
ENDBRANCH   1   2
BRANCH   1  20
ATOM     20  C   UNL     1      25.424   8.434  16.467  1.00  0.00     0.036 C 
BRANCH  20  21
ATOM     21  C   UNL     1      24.246   8.436  15.589  1.00  0.00    -0.048 A 
ATOM     22  C   UNL     1      24.318   7.960  14.271  1.00  0.00     0.004 A 
ATOM     23  C   UNL     1      23.019   8.887  15.997  1.00  0.00     0.004 A 
ATOM     24  C   UNL     1      23.222   7.946  13.439  1.00  0.00     0.012 A 
ATOM     25  C   UNL     1      21.901   8.872  15.144  1.00  0.00     0.012 A 
ATOM     26  C   UNL     1      21.988   8.402  13.855  1.00  0.00     0.016 A 
BRANCH  26  27
ATOM     27  C   UNL     1      20.852   8.372  12.945  1.00  0.00     0.122 C 
ATOM     28  N   UNL     1      19.779   9.256  13.199  1.00  0.00    -0.384 N 
ATOM     29  N   UNL     1      20.782   7.592  11.935  1.00  0.00    -0.284 NA
ATOM     30  H   UNL     1      19.968  10.291  13.270  1.00  0.00     0.158 HD
ATOM     31  H   UNL     1      18.804   8.903  13.319  1.00  0.00     0.158 HD
ATOM     32  H   UNL     1      19.944   7.622  11.325  1.00  0.00     0.189 HD
ENDBRANCH  26  27
ENDBRANCH  20  21
ENDBRANCH   1  20
TORSDOF 9
ENDMDL
MODEL 10
REMARK VINA RESULT:    -6.867      2.423      6.752
REMARK INTER + INTRA:         -11.747
REMARK INTER:                  -9.880
REMARK INTRA:                  -1.867
REMARK UNBOUND:                -1.266
REMARK SMILES COC(=O)C[C@H](CCc1ccc(C(=N)N)cc1)c1cccc(C(=N)N)c1
REMARK SMILES IDX 7 1 6 2 18 3 21 4 20 5 22 6 19 7 26 8 23 9 25 10 24 11 5 15
REMARK SMILES IDX 3 16 4 17 2 18 1 19 8 20 9 21 10 22 17 23 11 24 16 25 12 26
REMARK SMILES IDX 13 27 15 28 14 29
REMARK H PARENT 25 12 25 13 24 14 15 30 15 31 14 32
REMARK Flexibility Score: inf
ROOT
ATOM      1  C   UNL     1      27.750  11.425  20.168  1.00  0.00     0.014 C 
ENDROOT
BRANCH   1   2
ATOM      2  C   UNL     1      28.256  10.043  20.228  1.00  0.00     0.030 C 
BRANCH   2   3
ATOM      3  C   UNL     1      29.149   9.646  19.109  1.00  0.00    -0.044 A 
ATOM      4  C   UNL     1      30.831   8.893  17.134  1.00  0.00     0.012 A 
ATOM      5  C   UNL     1      29.494   9.058  16.852  1.00  0.00     0.001 A 
ATOM      6  C   UNL     1      31.352   9.099  18.399  1.00  0.00     0.016 A 
ATOM      7  C   UNL     1      28.618   9.444  17.856  1.00  0.00     0.004 A 
ATOM      8  C   UNL     1      30.492   9.483  19.404  1.00  0.00     0.016 A 
BRANCH   6   9
ATOM      9  C   UNL     1      32.784   8.906  18.631  1.00  0.00     0.122 C 
ATOM     10  N   UNL     1      33.701   8.693  17.569  1.00  0.00    -0.384 N 
ATOM     11  N   UNL     1      33.231   8.931  19.834  1.00  0.00    -0.284 NA
ATOM     12  H   UNL     1      34.374   7.900  17.584  1.00  0.00     0.158 HD
ATOM     13  H   UNL     1      33.662   9.379  16.771  1.00  0.00     0.158 HD
ATOM     14  H   UNL     1      34.241   8.795  20.008  1.00  0.00     0.189 HD
ENDBRANCH   6   9
ENDBRANCH   2   3
BRANCH   2  15
ATOM     15  C   UNL     1      27.098   9.038  20.237  1.00  0.00     0.131 C 
BRANCH  15  16
ATOM     16  C   UNL     1      26.438   8.904  21.543  1.00  0.00     0.306 C 
ATOM     17  O   UNL     1      26.983   8.583  22.615  1.00  0.00    -0.252 OA
BRANCH  16  18
ATOM     18  O   UNL     1      25.054   9.157  21.636  1.00  0.00    -0.469 OA
ATOM     19  C   UNL     1      24.361   9.799  20.600  1.00  0.00     0.282 C 
ENDBRANCH  16  18
ENDBRANCH  15  16
ENDBRANCH   2  15
ENDBRANCH   1   2
BRANCH   1  20
ATOM     20  C   UNL     1      28.733  12.527  20.286  1.00  0.00     0.036 C 
BRANCH  20  21
ATOM     21  C   UNL     1      28.883  13.398  19.113  1.00  0.00    -0.048 A 
ATOM     22  C   UNL     1      29.587  12.975  17.975  1.00  0.00     0.004 A 
ATOM     23  C   UNL     1      28.345  14.657  19.051  1.00  0.00     0.004 A 
ATOM     24  C   UNL     1      29.729  13.775  16.865  1.00  0.00     0.012 A 
ATOM     25  C   UNL     1      28.491  15.471  17.915  1.00  0.00     0.012 A 
ATOM     26  C   UNL     1      29.185  15.041  16.807  1.00  0.00     0.016 A 
BRANCH  26  27
ATOM     27  C   UNL     1      29.357  15.859  15.614  1.00  0.00     0.122 C 
ATOM     28  N   UNL     1      30.129  15.328  14.555  1.00  0.00    -0.384 N 
ATOM     29  N   UNL     1      28.845  17.022  15.481  1.00  0.00    -0.284 NA
ATOM     30  H   UNL     1      29.863  14.396  14.139  1.00  0.00     0.158 HD
ATOM     31  H   UNL     1      30.957  15.840  14.180  1.00  0.00     0.158 HD
ATOM     32  H   UNL     1      29.006  17.552  14.605  1.00  0.00     0.189 HD
ENDBRANCH  26  27
ENDBRANCH  20  21
ENDBRANCH   1  20
TORSDOF 9
ENDMDL
