REMARK SMILES COC(=O)C[C@H](CCc1ccc(C(=N)N)cc1)c1cccc(C(=N)N)c1
REMARK SMILES IDX 7 1 6 2 18 3 21 4 20 5 22 6 19 7 26 8 23 9 25 10 24 11 5 15
REMARK SMILES IDX 3 16 4 17 2 18 1 19 8 20 9 21 10 22 17 23 11 24 16 25 12 26
REMARK SMILES IDX 13 27 15 28 14 29
REMARK H PARENT 25 12 25 13 24 14 15 30 15 31 14 32
REMARK Flexibility Score: inf
ROOT
ATOM      1  C   UNL     1       0.309  -1.267   1.197  1.00  0.00     0.014 C 
ENDROOT
BRANCH   1   2
ATOM      2  C   UNL     1      -0.512  -0.474   0.265  1.00  0.00     0.030 C 
BRANCH   2   3
ATOM      3  C   UNL     1      -1.717   0.156   0.862  1.00  0.00    -0.044 A 
ATOM      4  C   UNL     1      -3.936   1.325   1.867  1.00  0.00     0.012 A 
ATOM      5  C   UNL     1      -3.297   0.352   2.601  1.00  0.00     0.001 A 
ATOM      6  C   UNL     1      -3.483   1.732   0.624  1.00  0.00     0.016 A 
ATOM      7  C   UNL     1      -2.157  -0.257   2.099  1.00  0.00     0.004 A 
ATOM      8  C   UNL     1      -2.352   1.134   0.114  1.00  0.00     0.016 A 
BRANCH   6   9
ATOM      9  C   UNL     1      -4.209   2.772  -0.105  1.00  0.00     0.122 C 
ATOM     10  N   UNL     1      -3.560   3.664  -0.999  1.00  0.00    -0.384 N 
ATOM     11  N   UNL     1      -5.476   2.886   0.065  1.00  0.00    -0.284 NA
ATOM     12  H   UNL     1      -3.695   4.693  -0.932  1.00  0.00     0.158 HD
ATOM     13  H   UNL     1      -2.938   3.227  -1.728  1.00  0.00     0.158 HD
ATOM     14  H   UNL     1      -5.998   3.619  -0.446  1.00  0.00     0.189 HD
ENDBRANCH   6   9
ENDBRANCH   2   3
BRANCH   2  15
ATOM     15  C   UNL     1      -1.006  -1.340  -0.900  1.00  0.00     0.131 C 
BRANCH  15  16
ATOM     16  C   UNL     1      -1.957  -2.386  -0.500  1.00  0.00     0.306 C 
ATOM     17  O   UNL     1      -2.382  -2.595   0.651  1.00  0.00    -0.252 OA
BRANCH  16  18
ATOM     18  O   UNL     1      -2.463  -3.259  -1.485  1.00  0.00    -0.469 OA
ATOM     19  C   UNL     1      -3.373  -4.274  -1.159  1.00  0.00     0.282 C 
ENDBRANCH  16  18
ENDBRANCH  15  16
ENDBRANCH   2  15
ENDBRANCH   1   2
BRANCH   1  20
ATOM     20  C   UNL     1       1.546  -1.890   0.671  1.00  0.00     0.036 C 
BRANCH  20  21
ATOM     21  C   UNL     1       2.580  -0.972   0.176  1.00  0.00    -0.048 A 
ATOM     22  C   UNL     1       3.550  -0.434   1.036  1.00  0.00     0.004 A 
ATOM     23  C   UNL     1       2.669  -0.594  -1.138  1.00  0.00     0.004 A 
ATOM     24  C   UNL     1       4.531   0.420   0.587  1.00  0.00     0.012 A 
ATOM     25  C   UNL     1       3.672   0.279  -1.593  1.00  0.00     0.012 A 
ATOM     26  C   UNL     1       4.616   0.797  -0.737  1.00  0.00     0.016 A 
BRANCH  26  27
ATOM     27  C   UNL     1       5.668   1.704  -1.174  1.00  0.00     0.122 C 
ATOM     28  N   UNL     1       6.150   2.654  -0.244  1.00  0.00    -0.384 N 
ATOM     29  N   UNL     1       6.172   1.680  -2.348  1.00  0.00    -0.284 NA
ATOM     30  H   UNL     1       6.526   2.323   0.684  1.00  0.00     0.158 HD
ATOM     31  H   UNL     1       6.139   3.675  -0.459  1.00  0.00     0.158 HD
ATOM     32  H   UNL     1       6.920   2.354  -2.595  1.00  0.00     0.189 HD
ENDBRANCH  26  27
ENDBRANCH  20  21
ENDBRANCH   1  20
TORSDOF 9
