MODEL 1
REMARK VINA RESULT:    -7.057      0.000      0.000
REMARK INTER + INTRA:         -10.846
REMARK INTER:                  -9.945
REMARK INTRA:                  -0.901
REMARK UNBOUND:                -0.901
REMARK SMILES Cc1ccc(NC(=O)c2ccc(CN3CCN(C)CC3)cc2)cc1Nc1nccc(-c2cccnc2)n1
REMARK SMILES IDX 24 1 2 2 3 3 4 4 5 5 23 6 1 7 25 8 26 10 30 11 29 12 37 13
REMARK SMILES IDX 28 14 27 15 31 16 33 17 32 18 34 19 35 20 36 21 6 22 7 23
REMARK SMILES IDX 8 25 9 26 10 27 22 28 11 29 21 30 12 31 13 32 14 33 15 34
REMARK SMILES IDX 20 35 16 36 19 37 17 38 18 39
REMARK H PARENT 25 9 6 24
REMARK Flexibility Score: inf
ROOT
ATOM      1  C   UNL     1     -49.787  10.151 -32.725  1.00  0.00     0.046 A 
ATOM      2  C   UNL     1     -51.070   9.708 -33.286  1.00  0.00    -0.027 A 
ATOM      3  C   UNL     1     -51.166   8.363 -33.776  1.00  0.00     0.008 A 
ATOM      4  C   UNL     1     -50.033   7.474 -33.715  1.00  0.00     0.026 A 
ATOM      5  C   UNL     1     -48.787   7.900 -33.168  1.00  0.00     0.043 A 
ATOM      6  C   UNL     1     -48.682   9.263 -32.672  1.00  0.00     0.052 A 
ATOM      7  C   UNL     1     -52.319  10.615 -33.371  1.00  0.00     0.046 C 
ENDROOT
BRANCH   1   8
ATOM      8  N   UNL     1     -49.631  11.449 -32.234  1.00  0.00    -0.324 N 
ATOM      9  H   UNL     1     -50.339  12.116 -32.388  1.00  0.00     0.170 HD
BRANCH   8  10
ATOM     10  C   UNL     1     -48.490  11.809 -31.534  1.00  0.00     0.227 A 
ATOM     11  C   UNL     1     -46.272  12.676 -31.616  1.00  0.00     0.077 A 
ATOM     12  C   UNL     1     -46.142  12.542 -30.194  1.00  0.00     0.049 A 
ATOM     13  N   UNL     1     -47.447  12.304 -32.232  1.00  0.00    -0.213 NA
ATOM     14  C   UNL     1     -47.249  12.022 -29.487  1.00  0.00     0.117 A 
ATOM     15  N   UNL     1     -48.396  11.666 -30.162  1.00  0.00    -0.221 NA
BRANCH  11  16
ATOM     16  C   UNL     1     -45.189  13.206 -32.503  1.00  0.00     0.019 A 
ATOM     17  C   UNL     1     -42.875  13.116 -33.505  1.00  0.00     0.021 A 
ATOM     18  C   UNL     1     -43.887  12.563 -32.634  1.00  0.00     0.013 A 
ATOM     19  C   UNL     1     -43.186  14.316 -34.235  1.00  0.00     0.111 A 
ATOM     20  N   UNL     1     -44.442  14.925 -34.102  1.00  0.00    -0.264 NA
ATOM     21  C   UNL     1     -45.437  14.415 -33.273  1.00  0.00     0.121 A 
ENDBRANCH  11  16
ENDBRANCH   8  10
ENDBRANCH   1   8
BRANCH   5  22
ATOM     22  N   UNL     1     -47.702   6.952 -33.133  1.00  0.00    -0.322 N 
ATOM     23  C   UNL     1     -46.997   6.504 -32.027  1.00  0.00     0.255 C 
ATOM     24  H   UNL     1     -47.428   6.576 -34.001  1.00  0.00     0.170 HD
ATOM     25  O   UNL     1     -47.053   7.016 -30.919  1.00  0.00    -0.269 OA
BRANCH  23  26
ATOM     26  C   UNL     1     -46.088   5.327 -32.178  1.00  0.00     0.040 A 
ATOM     27  C   UNL     1     -44.696   5.379 -31.723  1.00  0.00     0.014 A 
ATOM     28  C   UNL     1     -46.599   4.122 -32.795  1.00  0.00     0.014 A 
ATOM     29  C   UNL     1     -43.836   4.235 -31.896  1.00  0.00     0.006 A 
ATOM     30  C   UNL     1     -45.753   3.003 -32.962  1.00  0.00     0.006 A 
ATOM     31  C   UNL     1     -44.367   3.029 -32.525  1.00  0.00    -0.034 A 
BRANCH  31  32
ATOM     32  C   UNL     1     -43.516   1.769 -32.769  1.00  0.00     0.120 C 
BRANCH  32  33
ATOM     33  N   UNL     1     -42.045   1.882 -32.537  1.00  0.00    -0.297 NA
ATOM     34  C   UNL     1     -41.610   0.960 -31.424  1.00  0.00     0.100 C 
ATOM     35  C   UNL     1     -41.239   1.591 -33.806  1.00  0.00     0.100 C 
ATOM     36  C   UNL     1     -40.085   1.079 -31.153  1.00  0.00     0.099 C 
ATOM     37  C   UNL     1     -39.703   1.736 -33.551  1.00  0.00     0.099 C 
ATOM     38  N   UNL     1     -39.286   0.797 -32.418  1.00  0.00    -0.304 NA
ATOM     39  C   UNL     1     -37.833   0.889 -32.214  1.00  0.00     0.105 C 
ENDBRANCH  32  33
ENDBRANCH  31  32
ENDBRANCH  23  26
ENDBRANCH   5  22
TORSDOF 7
ENDMDL
